
 ANSYS Mechanical Enterprise                       


 *------------------------------------------------------------------*
 |                                                                  |
 |   W E L C O M E   T O   T H E   A N S Y S (R)  P R O G R A M     |
 |                                                                  |
 *------------------------------------------------------------------*




 ***************************************************************
 *            ANSYS 2020 R2          LEGAL NOTICES             *
 ***************************************************************
 *                                                             *
 * Copyright 1971-2020 ANSYS, Inc.  All rights reserved.       *
 * Unauthorized use, distribution or duplication is            *
 * prohibited.                                                 *
 *                                                             *
 * Ansys is a registered trademark of ANSYS, Inc. or its       *
 * subsidiaries in the United States or other countries.       *
 * See the ANSYS, Inc. online documentation or the ANSYS, Inc. *
 * documentation CD or online help for the complete Legal      *
 * Notice.                                                     *
 *                                                             *
 ***************************************************************
 *                                                             *
 * THIS ANSYS SOFTWARE PRODUCT AND PROGRAM DOCUMENTATION       *
 * INCLUDE TRADE SECRETS AND CONFIDENTIAL AND PROPRIETARY      *
 * PRODUCTS OF ANSYS, INC., ITS SUBSIDIARIES, OR LICENSORS.    *
 * The software products and documentation are furnished by    *
 * ANSYS, Inc. or its subsidiaries under a software license    *
 * agreement that contains provisions concerning               *
 * non-disclosure, copying, length and nature of use,          *
 * compliance with exporting laws, warranties, disclaimers,    *
 * limitations of liability, and remedies, and other           *
 * provisions.  The software products and documentation may be *
 * used, disclosed, transferred, or copied only in accordance  *
 * with the terms and conditions of that software license      *
 * agreement.                                                  *
 *                                                             *
 * ANSYS, Inc. is a UL registered                              *
 * ISO 9001:2015 company.                                      *
 *                                                             *
 ***************************************************************
 *                                                             *
 * This product is subject to U.S. laws governing export and   *
 * re-export.                                                  *
 *                                                             *
 * For U.S. Government users, except as specifically granted   *
 * by the ANSYS, Inc. software license agreement, the use,     *
 * duplication, or disclosure by the United States Government  *
 * is subject to restrictions stated in the ANSYS, Inc.        *
 * software license agreement and FAR 12.212 (for non-DOD      *
 * licenses).                                                  *
 *                                                             *
 ***************************************************************

 2020 R2 
     
 Point Releases and Patches installed:   
     
 ANSYS, Inc. Products 2020 R2
 SpaceClaim 2020 R2  
 Discovery 2020 R2   
 AIM 2020 R2 
 Live (includes SpaceClaim) 2020 R2  
 ANSYS Sherlock 2020 R2  
 Autodyn 2020 R2 
 LS-DYNA 2020 R2 
 CFX (includes CFD-Post) 2020 R2 
 Chemkin 2020 R2 
 EnSight 2020 R2 
 FENSAP-ICE 2020 R2  
 Fluent (includes CFD-Post) 2020 R2  
 Forte (includes EnSight) 2020 R2
 Polyflow (includes CFD-Post) 2020 R2
 TurboGrid 2020 R2   
 ICEM CFD 2020 R2
 Aqwa 2020 R2
 SPEOS 2020 R2   
 Mechanical Products 2020 R2 
 Additive 2020 R2
 Icepak (includes CFD-Post) 2020 R2  
 ACIS Geometry Interface 2020 R2 
 AutoCAD Geometry Interface 2020 R2  
 Catia, Version 4 Geometry Interface 2020 R2 
 Catia, Version 5 Geometry Interface 2020 R2 
 Catia, Version 6 Geometry Interface 2020 R2 
 Creo Elements/Direct Modeling Geometry Interface 2020 R2
 Creo Parametric Geometry Interface 2020 R2  
 Inventor Geometry Interface 2020 R2 
 JTOpen Geometry Interface 2020 R2   
 NX Geometry Interface 2020 R2   
 Parasolid Geometry Interface  2020 R2   
 Solid Edge Geometry Interface 2020 R2   
 SOLIDWORKS Geometry Interface 2020 R2   
 ANSYS, Inc. License Manager 2020 R2 


          *****  ANSYS COMMAND LINE ARGUMENTS  *****
  BATCH MODE REQUESTED (-b)    = NOLIST
  INPUT FILE COPY MODE (-c)    = COPY
  DISTRIBUTED MEMORY PARALLEL REQUESTED
       2 PARALLEL PROCESSES REQUESTED WITH SINGLE THREAD PER PROCESS
    TOTAL OF     2 CORES REQUESTED
  INPUT FILE NAME              = D:\石甘泉文件夹\UnderfloorHeatingLayout\fig\experiment1\bedroom1\ours\ansys\_ProjectScratch\Scr99A8\dummy.dat
  OUTPUT FILE NAME             = D:\石甘泉文件夹\UnderfloorHeatingLayout\fig\experiment1\bedroom1\ours\ansys\_ProjectScratch\Scr99A8\solve.out
  START-UP FILE MODE           = NOREAD
  STOP FILE MODE               = NOREAD

 RELEASE= 2020 R2              BUILD= 20.2      UP20200601   VERSION=WINDOWS x64 
 CURRENT JOBNAME=file0  16:27:08  FEB 11, 2022 CP=      0.797


 PARAMETER _DS_PROGRESS =     999.0000000    

 /INPUT FILE= ds.dat  LINE=       0



 *** NOTE ***                            CP =       0.812   TIME= 16:27:08
 The /CONFIG,NOELDB command is not valid in a Distributed ANSYS          
 solution.  Command is ignored.                                          

 *GET  _WALLSTRT  FROM  ACTI  ITEM=TIME WALL  VALUE=  16.4522222    

 TITLE= 
 layout--Steady-State Thermal (A5)                                             


 SET PARAMETER DIMENSIONS ON  _WB_PROJECTSCRATCH_DIR
  TYPE=STRI  DIMENSIONS=      248        1        1

 PARAMETER _WB_PROJECTSCRATCH_DIR(1) = D:\石甘泉文件夹\UnderfloorHeatingLayout\fig\experiment1\bedroom1\ours\ansys\_ProjectScratch\Scr99A8\

 SET PARAMETER DIMENSIONS ON  _WB_SOLVERFILES_DIR
  TYPE=STRI  DIMENSIONS=      248        1        1

 PARAMETER _WB_SOLVERFILES_DIR(1) = D:\石甘泉文件夹\UnderfloorHeatingLayout\fig\experiment1\bedroom1\ours\ansys\layout_files\dp0\SYS\MECH\

 SET PARAMETER DIMENSIONS ON  _WB_USERFILES_DIR
  TYPE=STRI  DIMENSIONS=      248        1        1

 PARAMETER _WB_USERFILES_DIR(1) = D:\石甘泉文件夹\UnderfloorHeatingLayout\fig\experiment1\bedroom1\ours\ansys\layout_files\user_files\
 --- Data in consistent MKS units. See Solving Units in the help system for more

 MKS UNITS SPECIFIED FOR INTERNAL    
  LENGTH        (l)  = METER (M)
  MASS          (M)  = KILOGRAM (KG)
  TIME          (t)  = SECOND (SEC)
  TEMPERATURE   (T)  = CELSIUS (C)
  TOFFSET            = 273.0
  CHARGE        (Q)  = COULOMB
  FORCE         (f)  = NEWTON (N) (KG-M/SEC2)
  HEAT               = JOULE (N-M)

  PRESSURE           = PASCAL (NEWTON/M**2)
  ENERGY        (W)  = JOULE (N-M)
  POWER         (P)  = WATT (N-M/SEC)
  CURRENT       (i)  = AMPERE (COULOMBS/SEC)
  CAPACITANCE   (C)  = FARAD
  INDUCTANCE    (L)  = HENRY
  MAGNETIC FLUX      = WEBER
  RESISTANCE    (R)  = OHM
  ELECTRIC POTENTIAL = VOLT

 INPUT  UNITS ARE ALSO SET TO MKS 

 *** ANSYS - ENGINEERING ANALYSIS SYSTEM  RELEASE 2020 R2          20.2     ***
 DISTRIBUTED ANSYS Mechanical Enterprise                       

 20120530  VERSION=WINDOWS x64   16:27:08  FEB 11, 2022 CP=      0.812

 layout--Steady-State Thermal (A5)                                             



          ***** ANSYS ANALYSIS DEFINITION (PREP7) *****
 *********** Nodes for the whole assembly ***********
 *********** Elements for Body 1 "Surface" ***********
 *********** Elements for Body 2 "Beam (Circle)" ***********
 *********** Elements for Body 3 "Beam (Circle)" ***********
 *********** Elements for Body 4 "Beam (Circle)" ***********
 *********** Elements for Body 5 "Beam (Circle)" ***********
 *********** Elements for Body 6 "Beam (Circle)" ***********
 *********** Elements for Body 7 "Beam (Circle)" ***********
 *********** Elements for Body 8 "Beam (Circle)" ***********
 *********** Elements for Body 9 "Beam (Circle)" ***********
 *********** Send User Defined Coordinate System(s) ***********
 *********** Send Materials ***********
 *********** Send Sheet Properties ***********
 *********** Send Beam Properties ***********
 *********** Create "Convection" ***********
 ***************** Define Uniform Initial temperature ***************


 ***** ROUTINE COMPLETED *****  CP =         1.000


 --- Number of total nodes = 25586
 --- Number of contact elements = 19237
 --- Number of spring elements = 0
 --- Number of bearing elements = 0
 --- Number of solid elements = 25400
 --- Number of condensed parts = 0
 --- Number of total elements = 44637

 *GET  _WALLBSOL  FROM  ACTI  ITEM=TIME WALL  VALUE=  16.4522222    
 ****************************************************************************
 *************************    SOLUTION       ********************************
 ****************************************************************************

 *****  ANSYS SOLUTION ROUTINE  *****


 PERFORM A STATIC ANALYSIS
  THIS WILL BE A NEW ANALYSIS

 CONTACT INFORMATION PRINTOUT LEVEL       1

 DO NOT SAVE ANY RESTART FILES AT ALL

 DO NOT COMBINE ELEMENT MATRIX FILES (.emat) AFTER DISTRIBUTED PARALLEL SOLUTION

 DO NOT COMBINE ELEMENT SAVE DATA FILES (.esav) AFTER DISTRIBUTED PARALLEL SOLUTION
 ****************************************************
 ******************* SOLVE FOR LS 1 OF 1 ****************

 SELECT       FOR ITEM=TYPE COMPONENT=    
  IN RANGE        10 TO         10 STEP          1

      19237  ELEMENTS (OF      44637  DEFINED) SELECTED BY  ESEL  COMMAND.

 SELECT      ALL NODES HAVING ANY ELEMENT IN ELEMENT SET.

      19423 NODES (OF      25586  DEFINED) SELECTED FROM
    19237 SELECTED ELEMENTS BY NSLE COMMAND.

 GENERATE SURFACE LOAD CONV ON SURFACE DEFINED BY ALL SELECTED NODES
 VALUES=  10.0000000      5.00000000    

 NUMBER OF CONV ELEMENT FACE LOADS STORED =      19237

 ALL SELECT   FOR ITEM=NODE COMPONENT=    
  IN RANGE         1 TO      25586 STEP          1

      25586  NODES (OF      25586  DEFINED) SELECTED BY NSEL  COMMAND.

 ALL SELECT   FOR ITEM=ELEM COMPONENT=    
  IN RANGE         1 TO      44637 STEP          1

      44637  ELEMENTS (OF      44637  DEFINED) SELECTED BY  ESEL  COMMAND.

 USE AUTOMATIC TIME STEPPING THIS LOAD STEP

 USE       1 SUBSTEPS INITIALLY THIS LOAD STEP FOR ALL  DEGREES OF FREEDOM
 FOR AUTOMATIC TIME STEPPING:
   USE     10 SUBSTEPS AS A MAXIMUM
   USE      1 SUBSTEPS AS A MINIMUM

 TIME=  1.0000    

 ERASE THE CURRENT DATABASE OUTPUT CONTROL TABLE.


 WRITE ALL  ITEMS TO THE DATABASE WITH A FREQUENCY OF NONE
   FOR ALL APPLICABLE ENTITIES

 WRITE NSOL ITEMS TO THE DATABASE WITH A FREQUENCY OF ALL 
   FOR ALL APPLICABLE ENTITIES

 WRITE RSOL ITEMS TO THE DATABASE WITH A FREQUENCY OF ALL 
   FOR ALL APPLICABLE ENTITIES

 WRITE EANG ITEMS TO THE DATABASE WITH A FREQUENCY OF ALL 
   FOR ALL APPLICABLE ENTITIES

 WRITE VENG ITEMS TO THE DATABASE WITH A FREQUENCY OF ALL 
   FOR ALL APPLICABLE ENTITIES

 WRITE FFLU ITEMS TO THE DATABASE WITH A FREQUENCY OF ALL 
   FOR ALL APPLICABLE ENTITIES

 WRITE CONT ITEMS TO THE DATABASE WITH A FREQUENCY OF ALL 
   FOR ALL APPLICABLE ENTITIES

 PRINTOUT RESUMED BY /GOP

 WRITE MISC ITEMS TO THE DATABASE WITH A FREQUENCY OF ALL 
   FOR THE ENTITIES DEFINED BY COMPONENT _ELMISC 

 CONVERGENCE ON HEAT BASED ON THE NORM OF THE N-R LOAD
   WITH A TOLERANCE OF 0.1000E-02 AND A MINIMUM REFERENCE VALUE OF 0.1000E-05
   USING THE L2 NORM (CHECK THE SRSS VALUE)

 SPECIFIED CONSTRAINT TEMP FOR SELECTED NODES         5025 TO        5025 BY           1
 REAL=  35.0000000       IMAG=  0.00000000    

 SPECIFIED CONSTRAINT TEMP FOR SELECTED NODES         5026 TO        5026 BY           1
 REAL=  35.0230000       IMAG=  0.00000000    

 SPECIFIED CONSTRAINT TEMP FOR SELECTED NODES         5027 TO        5027 BY           1
 REAL=  35.0080000       IMAG=  0.00000000    

 SPECIFIED CONSTRAINT TEMP FOR SELECTED NODES         5028 TO        5028 BY           1
 REAL=  35.0150000       IMAG=  0.00000000    

 SPECIFIED CONSTRAINT TEMP FOR SELECTED NODES         5029 TO        5029 BY           1
 REAL=  35.2080000       IMAG=  0.00000000    

 SPECIFIED CONSTRAINT TEMP FOR SELECTED NODES         5030 TO        5030 BY           1
 REAL=  35.0320000       IMAG=  0.00000000    

 SPECIFIED CONSTRAINT TEMP FOR SELECTED NODES         5031 TO        5031 BY           1
 REAL=  35.0400000       IMAG=  0.00000000    

 SPECIFIED CONSTRAINT TEMP FOR SELECTED NODES         5032 TO        5032 BY           1
 REAL=  35.0490000       IMAG=  0.00000000    

 SPECIFIED CONSTRAINT TEMP FOR SELECTED NODES         5033 TO        5033 BY           1
 REAL=  35.0580000       IMAG=  0.00000000    

 SPECIFIED CONSTRAINT TEMP FOR SELECTED NODES         5034 TO        5034 BY           1
 REAL=  35.0670000       IMAG=  0.00000000    

 SPECIFIED CONSTRAINT TEMP FOR SELECTED NODES         5035 TO        5035 BY           1
 REAL=  35.0760000       IMAG=  0.00000000    

 SPECIFIED CONSTRAINT TEMP FOR SELECTED NODES         5036 TO        5036 BY           1
 REAL=  35.0850000       IMAG=  0.00000000    

 SPECIFIED CONSTRAINT TEMP FOR SELECTED NODES         5037 TO        5037 BY           1
 REAL=  35.0930000       IMAG=  0.00000000    

 SPECIFIED CONSTRAINT TEMP FOR SELECTED NODES         5038 TO        5038 BY           1
 REAL=  35.1020000       IMAG=  0.00000000    

 SPECIFIED CONSTRAINT TEMP FOR SELECTED NODES         5039 TO        5039 BY           1
 REAL=  35.1110000       IMAG=  0.00000000    

 SPECIFIED CONSTRAINT TEMP FOR SELECTED NODES         5040 TO        5040 BY           1
 REAL=  35.1200000       IMAG=  0.00000000    

 SPECIFIED CONSTRAINT TEMP FOR SELECTED NODES         5041 TO        5041 BY           1
 REAL=  35.1290000       IMAG=  0.00000000    

 SPECIFIED CONSTRAINT TEMP FOR SELECTED NODES         5042 TO        5042 BY           1
 REAL=  35.1380000       IMAG=  0.00000000    

 SPECIFIED CONSTRAINT TEMP FOR SELECTED NODES         5043 TO        5043 BY           1
 REAL=  35.1460000       IMAG=  0.00000000    

 SPECIFIED CONSTRAINT TEMP FOR SELECTED NODES         5044 TO        5044 BY           1
 REAL=  35.1550000       IMAG=  0.00000000    

 SPECIFIED CONSTRAINT TEMP FOR SELECTED NODES         5045 TO        5045 BY           1
 REAL=  35.1640000       IMAG=  0.00000000    

 SPECIFIED CONSTRAINT TEMP FOR SELECTED NODES         5046 TO        5046 BY           1
 REAL=  35.1730000       IMAG=  0.00000000    

 SPECIFIED CONSTRAINT TEMP FOR SELECTED NODES         5047 TO        5047 BY           1
 REAL=  35.1820000       IMAG=  0.00000000    

 SPECIFIED CONSTRAINT TEMP FOR SELECTED NODES         5048 TO        5048 BY           1
 REAL=  35.1910000       IMAG=  0.00000000    

 SPECIFIED CONSTRAINT TEMP FOR SELECTED NODES         5049 TO        5049 BY           1
 REAL=  35.1990000       IMAG=  0.00000000    

 SPECIFIED CONSTRAINT TEMP FOR SELECTED NODES         5050 TO        5050 BY           1
 REAL=  35.3520000       IMAG=  0.00000000    

 SPECIFIED CONSTRAINT TEMP FOR SELECTED NODES         5051 TO        5051 BY           1
 REAL=  35.2170000       IMAG=  0.00000000    

 SPECIFIED CONSTRAINT TEMP FOR SELECTED NODES         5052 TO        5052 BY           1
 REAL=  35.2250000       IMAG=  0.00000000    

 SPECIFIED CONSTRAINT TEMP FOR SELECTED NODES         5053 TO        5053 BY           1
 REAL=  35.2340000       IMAG=  0.00000000    

 SPECIFIED CONSTRAINT TEMP FOR SELECTED NODES         5054 TO        5054 BY           1
 REAL=  35.2420000       IMAG=  0.00000000    

 SPECIFIED CONSTRAINT TEMP FOR SELECTED NODES         5055 TO        5055 BY           1
 REAL=  35.2500000       IMAG=  0.00000000    

 SPECIFIED CONSTRAINT TEMP FOR SELECTED NODES         5056 TO        5056 BY           1
 REAL=  35.2590000       IMAG=  0.00000000    

 SPECIFIED CONSTRAINT TEMP FOR SELECTED NODES         5057 TO        5057 BY           1
 REAL=  35.2670000       IMAG=  0.00000000    

 SPECIFIED CONSTRAINT TEMP FOR SELECTED NODES         5058 TO        5058 BY           1
 REAL=  35.2760000       IMAG=  0.00000000    

 SPECIFIED CONSTRAINT TEMP FOR SELECTED NODES         5059 TO        5059 BY           1
 REAL=  35.2840000       IMAG=  0.00000000    

 SPECIFIED CONSTRAINT TEMP FOR SELECTED NODES         5060 TO        5060 BY           1
 REAL=  35.2930000       IMAG=  0.00000000    

 SPECIFIED CONSTRAINT TEMP FOR SELECTED NODES         5061 TO        5061 BY           1
 REAL=  35.3010000       IMAG=  0.00000000    

 SPECIFIED CONSTRAINT TEMP FOR SELECTED NODES         5062 TO        5062 BY           1
 REAL=  35.3100000       IMAG=  0.00000000    

 SPECIFIED CONSTRAINT TEMP FOR SELECTED NODES         5063 TO        5063 BY           1
 REAL=  35.3180000       IMAG=  0.00000000    

 SPECIFIED CONSTRAINT TEMP FOR SELECTED NODES         5064 TO        5064 BY           1
 REAL=  35.3260000       IMAG=  0.00000000    

 SPECIFIED CONSTRAINT TEMP FOR SELECTED NODES         5065 TO        5065 BY           1
 REAL=  35.3350000       IMAG=  0.00000000    

 SPECIFIED CONSTRAINT TEMP FOR SELECTED NODES         5066 TO        5066 BY           1
 REAL=  35.3430000       IMAG=  0.00000000    

 SPECIFIED CONSTRAINT TEMP FOR SELECTED NODES         5067 TO        5067 BY           1
 REAL=  35.4240000       IMAG=  0.00000000    

 SPECIFIED CONSTRAINT TEMP FOR SELECTED NODES         5068 TO        5068 BY           1
 REAL=  35.3600000       IMAG=  0.00000000    

 SPECIFIED CONSTRAINT TEMP FOR SELECTED NODES         5069 TO        5069 BY           1
 REAL=  35.3680000       IMAG=  0.00000000    

 SPECIFIED CONSTRAINT TEMP FOR SELECTED NODES         5070 TO        5070 BY           1
 REAL=  35.3760000       IMAG=  0.00000000    

 SPECIFIED CONSTRAINT TEMP FOR SELECTED NODES         5071 TO        5071 BY           1
 REAL=  35.3840000       IMAG=  0.00000000    

 SPECIFIED CONSTRAINT TEMP FOR SELECTED NODES         5072 TO        5072 BY           1
 REAL=  35.3920000       IMAG=  0.00000000    

 SPECIFIED CONSTRAINT TEMP FOR SELECTED NODES         5073 TO        5073 BY           1
 REAL=  35.4000000       IMAG=  0.00000000    

 SPECIFIED CONSTRAINT TEMP FOR SELECTED NODES         5074 TO        5074 BY           1
 REAL=  35.4080000       IMAG=  0.00000000    

 SPECIFIED CONSTRAINT TEMP FOR SELECTED NODES         5075 TO        5075 BY           1
 REAL=  35.4160000       IMAG=  0.00000000    

 SPECIFIED CONSTRAINT TEMP FOR SELECTED NODES         5076 TO        5076 BY           1
 REAL=  35.5690000       IMAG=  0.00000000    

 SPECIFIED CONSTRAINT TEMP FOR SELECTED NODES         5077 TO        5077 BY           1
 REAL=  35.4320000       IMAG=  0.00000000    

 SPECIFIED CONSTRAINT TEMP FOR SELECTED NODES         5078 TO        5078 BY           1
 REAL=  35.4410000       IMAG=  0.00000000    

 SPECIFIED CONSTRAINT TEMP FOR SELECTED NODES         5079 TO        5079 BY           1
 REAL=  35.4490000       IMAG=  0.00000000    

 SPECIFIED CONSTRAINT TEMP FOR SELECTED NODES         5080 TO        5080 BY           1
 REAL=  35.4580000       IMAG=  0.00000000    

 SPECIFIED CONSTRAINT TEMP FOR SELECTED NODES         5081 TO        5081 BY           1
 REAL=  35.4660000       IMAG=  0.00000000    

 SPECIFIED CONSTRAINT TEMP FOR SELECTED NODES         5082 TO        5082 BY           1
 REAL=  35.4750000       IMAG=  0.00000000    

 SPECIFIED CONSTRAINT TEMP FOR SELECTED NODES         5083 TO        5083 BY           1
 REAL=  35.4830000       IMAG=  0.00000000    

 SPECIFIED CONSTRAINT TEMP FOR SELECTED NODES         5084 TO        5084 BY           1
 REAL=  35.4920000       IMAG=  0.00000000    

 SPECIFIED CONSTRAINT TEMP FOR SELECTED NODES         5085 TO        5085 BY           1
 REAL=  35.5010000       IMAG=  0.00000000    

 SPECIFIED CONSTRAINT TEMP FOR SELECTED NODES         5086 TO        5086 BY           1
 REAL=  35.5090000       IMAG=  0.00000000    

 SPECIFIED CONSTRAINT TEMP FOR SELECTED NODES         5087 TO        5087 BY           1
 REAL=  35.5180000       IMAG=  0.00000000    

 SPECIFIED CONSTRAINT TEMP FOR SELECTED NODES         5088 TO        5088 BY           1
 REAL=  35.5260000       IMAG=  0.00000000    

 SPECIFIED CONSTRAINT TEMP FOR SELECTED NODES         5089 TO        5089 BY           1
 REAL=  35.5350000       IMAG=  0.00000000    

 SPECIFIED CONSTRAINT TEMP FOR SELECTED NODES         5090 TO        5090 BY           1
 REAL=  35.5430000       IMAG=  0.00000000    

 SPECIFIED CONSTRAINT TEMP FOR SELECTED NODES         5091 TO        5091 BY           1
 REAL=  35.5520000       IMAG=  0.00000000    

 SPECIFIED CONSTRAINT TEMP FOR SELECTED NODES         5092 TO        5092 BY           1
 REAL=  35.5600000       IMAG=  0.00000000    

 SPECIFIED CONSTRAINT TEMP FOR SELECTED NODES         5093 TO        5093 BY           1
 REAL=  35.6300000       IMAG=  0.00000000    

 SPECIFIED CONSTRAINT TEMP FOR SELECTED NODES         5094 TO        5094 BY           1
 REAL=  35.5780000       IMAG=  0.00000000    

 SPECIFIED CONSTRAINT TEMP FOR SELECTED NODES         5095 TO        5095 BY           1
 REAL=  35.5860000       IMAG=  0.00000000    

 SPECIFIED CONSTRAINT TEMP FOR SELECTED NODES         5096 TO        5096 BY           1
 REAL=  35.5950000       IMAG=  0.00000000    

 SPECIFIED CONSTRAINT TEMP FOR SELECTED NODES         5097 TO        5097 BY           1
 REAL=  35.6040000       IMAG=  0.00000000    

 SPECIFIED CONSTRAINT TEMP FOR SELECTED NODES         5098 TO        5098 BY           1
 REAL=  35.6120000       IMAG=  0.00000000    

 SPECIFIED CONSTRAINT TEMP FOR SELECTED NODES         5099 TO        5099 BY           1
 REAL=  35.6210000       IMAG=  0.00000000    

 SPECIFIED CONSTRAINT TEMP FOR SELECTED NODES         5100 TO        5100 BY           1
 REAL=  35.8770000       IMAG=  0.00000000    

 SPECIFIED CONSTRAINT TEMP FOR SELECTED NODES         5101 TO        5101 BY           1
 REAL=  35.6390000       IMAG=  0.00000000    

 SPECIFIED CONSTRAINT TEMP FOR SELECTED NODES         5102 TO        5102 BY           1
 REAL=  35.6470000       IMAG=  0.00000000    

 SPECIFIED CONSTRAINT TEMP FOR SELECTED NODES         5103 TO        5103 BY           1
 REAL=  35.6560000       IMAG=  0.00000000    

 SPECIFIED CONSTRAINT TEMP FOR SELECTED NODES         5104 TO        5104 BY           1
 REAL=  35.6650000       IMAG=  0.00000000    

 SPECIFIED CONSTRAINT TEMP FOR SELECTED NODES         5105 TO        5105 BY           1
 REAL=  35.6740000       IMAG=  0.00000000    

 SPECIFIED CONSTRAINT TEMP FOR SELECTED NODES         5106 TO        5106 BY           1
 REAL=  35.6830000       IMAG=  0.00000000    

 SPECIFIED CONSTRAINT TEMP FOR SELECTED NODES         5107 TO        5107 BY           1
 REAL=  35.6910000       IMAG=  0.00000000    

 SPECIFIED CONSTRAINT TEMP FOR SELECTED NODES         5108 TO        5108 BY           1
 REAL=  35.7000000       IMAG=  0.00000000    

 SPECIFIED CONSTRAINT TEMP FOR SELECTED NODES         5109 TO        5109 BY           1
 REAL=  35.7090000       IMAG=  0.00000000    

 SPECIFIED CONSTRAINT TEMP FOR SELECTED NODES         5110 TO        5110 BY           1
 REAL=  35.7180000       IMAG=  0.00000000    

 SPECIFIED CONSTRAINT TEMP FOR SELECTED NODES         5111 TO        5111 BY           1
 REAL=  35.7270000       IMAG=  0.00000000    

 SPECIFIED CONSTRAINT TEMP FOR SELECTED NODES         5112 TO        5112 BY           1
 REAL=  35.7360000       IMAG=  0.00000000    

 SPECIFIED CONSTRAINT TEMP FOR SELECTED NODES         5113 TO        5113 BY           1
 REAL=  35.7440000       IMAG=  0.00000000    

 SPECIFIED CONSTRAINT TEMP FOR SELECTED NODES         5114 TO        5114 BY           1
 REAL=  35.7530000       IMAG=  0.00000000    

 SPECIFIED CONSTRAINT TEMP FOR SELECTED NODES         5115 TO        5115 BY           1
 REAL=  35.7620000       IMAG=  0.00000000    

 SPECIFIED CONSTRAINT TEMP FOR SELECTED NODES         5116 TO        5116 BY           1
 REAL=  35.7710000       IMAG=  0.00000000    

 SPECIFIED CONSTRAINT TEMP FOR SELECTED NODES         5117 TO        5117 BY           1
 REAL=  35.7800000       IMAG=  0.00000000    

 SPECIFIED CONSTRAINT TEMP FOR SELECTED NODES         5118 TO        5118 BY           1
 REAL=  35.7880000       IMAG=  0.00000000    

 SPECIFIED CONSTRAINT TEMP FOR SELECTED NODES         5119 TO        5119 BY           1
 REAL=  35.7970000       IMAG=  0.00000000    

 SPECIFIED CONSTRAINT TEMP FOR SELECTED NODES         5120 TO        5120 BY           1
 REAL=  35.8060000       IMAG=  0.00000000    

 SPECIFIED CONSTRAINT TEMP FOR SELECTED NODES         5121 TO        5121 BY           1
 REAL=  35.8150000       IMAG=  0.00000000    

 SPECIFIED CONSTRAINT TEMP FOR SELECTED NODES         5122 TO        5122 BY           1
 REAL=  35.8240000       IMAG=  0.00000000    

 SPECIFIED CONSTRAINT TEMP FOR SELECTED NODES         5123 TO        5123 BY           1
 REAL=  35.8330000       IMAG=  0.00000000    

 SPECIFIED CONSTRAINT TEMP FOR SELECTED NODES         5124 TO        5124 BY           1
 REAL=  35.8410000       IMAG=  0.00000000    

 SPECIFIED CONSTRAINT TEMP FOR SELECTED NODES         5125 TO        5125 BY           1
 REAL=  35.8500000       IMAG=  0.00000000    

 SPECIFIED CONSTRAINT TEMP FOR SELECTED NODES         5126 TO        5126 BY           1
 REAL=  35.8590000       IMAG=  0.00000000    

 SPECIFIED CONSTRAINT TEMP FOR SELECTED NODES         5127 TO        5127 BY           1
 REAL=  35.8680000       IMAG=  0.00000000    

 SPECIFIED CONSTRAINT TEMP FOR SELECTED NODES         5128 TO        5128 BY           1
 REAL=  35.8790000       IMAG=  0.00000000    

 SPECIFIED CONSTRAINT TEMP FOR SELECTED NODES         5129 TO        5129 BY           1
 REAL=  36.2090000       IMAG=  0.00000000    

 SPECIFIED CONSTRAINT TEMP FOR SELECTED NODES         5130 TO        5130 BY           1
 REAL=  35.8880000       IMAG=  0.00000000    

 SPECIFIED CONSTRAINT TEMP FOR SELECTED NODES         5131 TO        5131 BY           1
 REAL=  35.8960000       IMAG=  0.00000000    

 SPECIFIED CONSTRAINT TEMP FOR SELECTED NODES         5132 TO        5132 BY           1
 REAL=  35.9050000       IMAG=  0.00000000    

 SPECIFIED CONSTRAINT TEMP FOR SELECTED NODES         5133 TO        5133 BY           1
 REAL=  35.9140000       IMAG=  0.00000000    

 SPECIFIED CONSTRAINT TEMP FOR SELECTED NODES         5134 TO        5134 BY           1
 REAL=  35.9230000       IMAG=  0.00000000    

 SPECIFIED CONSTRAINT TEMP FOR SELECTED NODES         5135 TO        5135 BY           1
 REAL=  35.9310000       IMAG=  0.00000000    

 SPECIFIED CONSTRAINT TEMP FOR SELECTED NODES         5136 TO        5136 BY           1
 REAL=  35.9400000       IMAG=  0.00000000    

 SPECIFIED CONSTRAINT TEMP FOR SELECTED NODES         5137 TO        5137 BY           1
 REAL=  35.9490000       IMAG=  0.00000000    

 SPECIFIED CONSTRAINT TEMP FOR SELECTED NODES         5138 TO        5138 BY           1
 REAL=  35.9570000       IMAG=  0.00000000    

 SPECIFIED CONSTRAINT TEMP FOR SELECTED NODES         5139 TO        5139 BY           1
 REAL=  35.9660000       IMAG=  0.00000000    

 SPECIFIED CONSTRAINT TEMP FOR SELECTED NODES         5140 TO        5140 BY           1
 REAL=  35.9750000       IMAG=  0.00000000    

 SPECIFIED CONSTRAINT TEMP FOR SELECTED NODES         5141 TO        5141 BY           1
 REAL=  35.9830000       IMAG=  0.00000000    

 SPECIFIED CONSTRAINT TEMP FOR SELECTED NODES         5142 TO        5142 BY           1
 REAL=  35.9920000       IMAG=  0.00000000    

 SPECIFIED CONSTRAINT TEMP FOR SELECTED NODES         5143 TO        5143 BY           1
 REAL=  36.0010000       IMAG=  0.00000000    

 SPECIFIED CONSTRAINT TEMP FOR SELECTED NODES         5144 TO        5144 BY           1
 REAL=  36.0090000       IMAG=  0.00000000    

 SPECIFIED CONSTRAINT TEMP FOR SELECTED NODES         5145 TO        5145 BY           1
 REAL=  36.0180000       IMAG=  0.00000000    

 SPECIFIED CONSTRAINT TEMP FOR SELECTED NODES         5146 TO        5146 BY           1
 REAL=  36.0270000       IMAG=  0.00000000    

 SPECIFIED CONSTRAINT TEMP FOR SELECTED NODES         5147 TO        5147 BY           1
 REAL=  36.0350000       IMAG=  0.00000000    

 SPECIFIED CONSTRAINT TEMP FOR SELECTED NODES         5148 TO        5148 BY           1
 REAL=  36.0440000       IMAG=  0.00000000    

 SPECIFIED CONSTRAINT TEMP FOR SELECTED NODES         5149 TO        5149 BY           1
 REAL=  36.0530000       IMAG=  0.00000000    

 SPECIFIED CONSTRAINT TEMP FOR SELECTED NODES         5150 TO        5150 BY           1
 REAL=  36.0610000       IMAG=  0.00000000    

 SPECIFIED CONSTRAINT TEMP FOR SELECTED NODES         5151 TO        5151 BY           1
 REAL=  36.0700000       IMAG=  0.00000000    

 SPECIFIED CONSTRAINT TEMP FOR SELECTED NODES         5152 TO        5152 BY           1
 REAL=  36.0790000       IMAG=  0.00000000    

 SPECIFIED CONSTRAINT TEMP FOR SELECTED NODES         5153 TO        5153 BY           1
 REAL=  36.0870000       IMAG=  0.00000000    

 SPECIFIED CONSTRAINT TEMP FOR SELECTED NODES         5154 TO        5154 BY           1
 REAL=  36.0960000       IMAG=  0.00000000    

 SPECIFIED CONSTRAINT TEMP FOR SELECTED NODES         5155 TO        5155 BY           1
 REAL=  36.1050000       IMAG=  0.00000000    

 SPECIFIED CONSTRAINT TEMP FOR SELECTED NODES         5156 TO        5156 BY           1
 REAL=  36.1130000       IMAG=  0.00000000    

 SPECIFIED CONSTRAINT TEMP FOR SELECTED NODES         5157 TO        5157 BY           1
 REAL=  36.1220000       IMAG=  0.00000000    

 SPECIFIED CONSTRAINT TEMP FOR SELECTED NODES         5158 TO        5158 BY           1
 REAL=  36.1310000       IMAG=  0.00000000    

 SPECIFIED CONSTRAINT TEMP FOR SELECTED NODES         5159 TO        5159 BY           1
 REAL=  36.1390000       IMAG=  0.00000000    

 SPECIFIED CONSTRAINT TEMP FOR SELECTED NODES         5160 TO        5160 BY           1
 REAL=  36.1480000       IMAG=  0.00000000    

 SPECIFIED CONSTRAINT TEMP FOR SELECTED NODES         5161 TO        5161 BY           1
 REAL=  36.1570000       IMAG=  0.00000000    

 SPECIFIED CONSTRAINT TEMP FOR SELECTED NODES         5162 TO        5162 BY           1
 REAL=  36.1650000       IMAG=  0.00000000    

 SPECIFIED CONSTRAINT TEMP FOR SELECTED NODES         5163 TO        5163 BY           1
 REAL=  36.1740000       IMAG=  0.00000000    

 SPECIFIED CONSTRAINT TEMP FOR SELECTED NODES         5164 TO        5164 BY           1
 REAL=  36.1830000       IMAG=  0.00000000    

 SPECIFIED CONSTRAINT TEMP FOR SELECTED NODES         5165 TO        5165 BY           1
 REAL=  36.1910000       IMAG=  0.00000000    

 SPECIFIED CONSTRAINT TEMP FOR SELECTED NODES         5166 TO        5166 BY           1
 REAL=  36.2000000       IMAG=  0.00000000    

 SPECIFIED CONSTRAINT TEMP FOR SELECTED NODES         5167 TO        5167 BY           1
 REAL=  36.4830000       IMAG=  0.00000000    

 SPECIFIED CONSTRAINT TEMP FOR SELECTED NODES         5168 TO        5168 BY           1
 REAL=  36.2180000       IMAG=  0.00000000    

 SPECIFIED CONSTRAINT TEMP FOR SELECTED NODES         5169 TO        5169 BY           1
 REAL=  36.2260000       IMAG=  0.00000000    

 SPECIFIED CONSTRAINT TEMP FOR SELECTED NODES         5170 TO        5170 BY           1
 REAL=  36.2350000       IMAG=  0.00000000    

 SPECIFIED CONSTRAINT TEMP FOR SELECTED NODES         5171 TO        5171 BY           1
 REAL=  36.2440000       IMAG=  0.00000000    

 SPECIFIED CONSTRAINT TEMP FOR SELECTED NODES         5172 TO        5172 BY           1
 REAL=  36.2530000       IMAG=  0.00000000    

 SPECIFIED CONSTRAINT TEMP FOR SELECTED NODES         5173 TO        5173 BY           1
 REAL=  36.2620000       IMAG=  0.00000000    

 SPECIFIED CONSTRAINT TEMP FOR SELECTED NODES         5174 TO        5174 BY           1
 REAL=  36.2710000       IMAG=  0.00000000    

 SPECIFIED CONSTRAINT TEMP FOR SELECTED NODES         5175 TO        5175 BY           1
 REAL=  36.2790000       IMAG=  0.00000000    

 SPECIFIED CONSTRAINT TEMP FOR SELECTED NODES         5176 TO        5176 BY           1
 REAL=  36.2880000       IMAG=  0.00000000    

 SPECIFIED CONSTRAINT TEMP FOR SELECTED NODES         5177 TO        5177 BY           1
 REAL=  36.2970000       IMAG=  0.00000000    

 SPECIFIED CONSTRAINT TEMP FOR SELECTED NODES         5178 TO        5178 BY           1
 REAL=  36.3060000       IMAG=  0.00000000    

 SPECIFIED CONSTRAINT TEMP FOR SELECTED NODES         5179 TO        5179 BY           1
 REAL=  36.3150000       IMAG=  0.00000000    

 SPECIFIED CONSTRAINT TEMP FOR SELECTED NODES         5180 TO        5180 BY           1
 REAL=  36.3240000       IMAG=  0.00000000    

 SPECIFIED CONSTRAINT TEMP FOR SELECTED NODES         5181 TO        5181 BY           1
 REAL=  36.3320000       IMAG=  0.00000000    

 SPECIFIED CONSTRAINT TEMP FOR SELECTED NODES         5182 TO        5182 BY           1
 REAL=  36.3410000       IMAG=  0.00000000    

 SPECIFIED CONSTRAINT TEMP FOR SELECTED NODES         5183 TO        5183 BY           1
 REAL=  36.3500000       IMAG=  0.00000000    

 SPECIFIED CONSTRAINT TEMP FOR SELECTED NODES         5184 TO        5184 BY           1
 REAL=  36.3590000       IMAG=  0.00000000    

 SPECIFIED CONSTRAINT TEMP FOR SELECTED NODES         5185 TO        5185 BY           1
 REAL=  36.3680000       IMAG=  0.00000000    

 SPECIFIED CONSTRAINT TEMP FOR SELECTED NODES         5186 TO        5186 BY           1
 REAL=  36.3770000       IMAG=  0.00000000    

 SPECIFIED CONSTRAINT TEMP FOR SELECTED NODES         5187 TO        5187 BY           1
 REAL=  36.3850000       IMAG=  0.00000000    

 SPECIFIED CONSTRAINT TEMP FOR SELECTED NODES         5188 TO        5188 BY           1
 REAL=  36.3940000       IMAG=  0.00000000    

 SPECIFIED CONSTRAINT TEMP FOR SELECTED NODES         5189 TO        5189 BY           1
 REAL=  36.4030000       IMAG=  0.00000000    

 SPECIFIED CONSTRAINT TEMP FOR SELECTED NODES         5190 TO        5190 BY           1
 REAL=  36.4120000       IMAG=  0.00000000    

 SPECIFIED CONSTRAINT TEMP FOR SELECTED NODES         5191 TO        5191 BY           1
 REAL=  36.4210000       IMAG=  0.00000000    

 SPECIFIED CONSTRAINT TEMP FOR SELECTED NODES         5192 TO        5192 BY           1
 REAL=  36.4300000       IMAG=  0.00000000    

 SPECIFIED CONSTRAINT TEMP FOR SELECTED NODES         5193 TO        5193 BY           1
 REAL=  36.4380000       IMAG=  0.00000000    

 SPECIFIED CONSTRAINT TEMP FOR SELECTED NODES         5194 TO        5194 BY           1
 REAL=  36.4470000       IMAG=  0.00000000    

 SPECIFIED CONSTRAINT TEMP FOR SELECTED NODES         5195 TO        5195 BY           1
 REAL=  36.4560000       IMAG=  0.00000000    

 SPECIFIED CONSTRAINT TEMP FOR SELECTED NODES         5196 TO        5196 BY           1
 REAL=  36.4650000       IMAG=  0.00000000    

 SPECIFIED CONSTRAINT TEMP FOR SELECTED NODES         5197 TO        5197 BY           1
 REAL=  36.4740000       IMAG=  0.00000000    

 SPECIFIED CONSTRAINT TEMP FOR SELECTED NODES         5198 TO        5198 BY           1
 REAL=  36.5630000       IMAG=  0.00000000    

 SPECIFIED CONSTRAINT TEMP FOR SELECTED NODES         5199 TO        5199 BY           1
 REAL=  36.4910000       IMAG=  0.00000000    

 SPECIFIED CONSTRAINT TEMP FOR SELECTED NODES         5200 TO        5200 BY           1
 REAL=  36.4990000       IMAG=  0.00000000    

 SPECIFIED CONSTRAINT TEMP FOR SELECTED NODES         5201 TO        5201 BY           1
 REAL=  36.5070000       IMAG=  0.00000000    

 SPECIFIED CONSTRAINT TEMP FOR SELECTED NODES         5202 TO        5202 BY           1
 REAL=  36.5150000       IMAG=  0.00000000    

 SPECIFIED CONSTRAINT TEMP FOR SELECTED NODES         5203 TO        5203 BY           1
 REAL=  36.5230000       IMAG=  0.00000000    

 SPECIFIED CONSTRAINT TEMP FOR SELECTED NODES         5204 TO        5204 BY           1
 REAL=  36.5310000       IMAG=  0.00000000    

 SPECIFIED CONSTRAINT TEMP FOR SELECTED NODES         5205 TO        5205 BY           1
 REAL=  36.5390000       IMAG=  0.00000000    

 SPECIFIED CONSTRAINT TEMP FOR SELECTED NODES         5206 TO        5206 BY           1
 REAL=  36.5470000       IMAG=  0.00000000    

 SPECIFIED CONSTRAINT TEMP FOR SELECTED NODES         5207 TO        5207 BY           1
 REAL=  36.5550000       IMAG=  0.00000000    

 SPECIFIED CONSTRAINT TEMP FOR SELECTED NODES         5208 TO        5208 BY           1
 REAL=  36.5690000       IMAG=  0.00000000    

 SPECIFIED CONSTRAINT TEMP FOR SELECTED NODES         5209 TO        5209 BY           1
 REAL=  37.3600000       IMAG=  0.00000000    

 SPECIFIED CONSTRAINT TEMP FOR SELECTED NODES         5210 TO        5210 BY           1
 REAL=  37.3510000       IMAG=  0.00000000    

 SPECIFIED CONSTRAINT TEMP FOR SELECTED NODES         5211 TO        5211 BY           1
 REAL=  37.3420000       IMAG=  0.00000000    

 SPECIFIED CONSTRAINT TEMP FOR SELECTED NODES         5212 TO        5212 BY           1
 REAL=  37.3330000       IMAG=  0.00000000    

 SPECIFIED CONSTRAINT TEMP FOR SELECTED NODES         5213 TO        5213 BY           1
 REAL=  37.3250000       IMAG=  0.00000000    

 SPECIFIED CONSTRAINT TEMP FOR SELECTED NODES         5214 TO        5214 BY           1
 REAL=  37.3160000       IMAG=  0.00000000    

 SPECIFIED CONSTRAINT TEMP FOR SELECTED NODES         5215 TO        5215 BY           1
 REAL=  37.3070000       IMAG=  0.00000000    

 SPECIFIED CONSTRAINT TEMP FOR SELECTED NODES         5216 TO        5216 BY           1
 REAL=  37.2980000       IMAG=  0.00000000    

 SPECIFIED CONSTRAINT TEMP FOR SELECTED NODES         5217 TO        5217 BY           1
 REAL=  37.2890000       IMAG=  0.00000000    

 SPECIFIED CONSTRAINT TEMP FOR SELECTED NODES         5218 TO        5218 BY           1
 REAL=  37.2810000       IMAG=  0.00000000    

 SPECIFIED CONSTRAINT TEMP FOR SELECTED NODES         5219 TO        5219 BY           1
 REAL=  37.2720000       IMAG=  0.00000000    

 SPECIFIED CONSTRAINT TEMP FOR SELECTED NODES         5220 TO        5220 BY           1
 REAL=  37.2630000       IMAG=  0.00000000    

 SPECIFIED CONSTRAINT TEMP FOR SELECTED NODES         5221 TO        5221 BY           1
 REAL=  37.2540000       IMAG=  0.00000000    

 SPECIFIED CONSTRAINT TEMP FOR SELECTED NODES         5222 TO        5222 BY           1
 REAL=  37.2450000       IMAG=  0.00000000    

 SPECIFIED CONSTRAINT TEMP FOR SELECTED NODES         5223 TO        5223 BY           1
 REAL=  37.2370000       IMAG=  0.00000000    

 SPECIFIED CONSTRAINT TEMP FOR SELECTED NODES         5224 TO        5224 BY           1
 REAL=  37.2280000       IMAG=  0.00000000    

 SPECIFIED CONSTRAINT TEMP FOR SELECTED NODES         5225 TO        5225 BY           1
 REAL=  37.2190000       IMAG=  0.00000000    

 SPECIFIED CONSTRAINT TEMP FOR SELECTED NODES         5226 TO        5226 BY           1
 REAL=  37.2100000       IMAG=  0.00000000    

 SPECIFIED CONSTRAINT TEMP FOR SELECTED NODES         5227 TO        5227 BY           1
 REAL=  37.2020000       IMAG=  0.00000000    

 SPECIFIED CONSTRAINT TEMP FOR SELECTED NODES         5228 TO        5228 BY           1
 REAL=  37.1930000       IMAG=  0.00000000    

 SPECIFIED CONSTRAINT TEMP FOR SELECTED NODES         5229 TO        5229 BY           1
 REAL=  37.1840000       IMAG=  0.00000000    

 SPECIFIED CONSTRAINT TEMP FOR SELECTED NODES         5230 TO        5230 BY           1
 REAL=  37.1750000       IMAG=  0.00000000    

 SPECIFIED CONSTRAINT TEMP FOR SELECTED NODES         5231 TO        5231 BY           1
 REAL=  37.1660000       IMAG=  0.00000000    

 SPECIFIED CONSTRAINT TEMP FOR SELECTED NODES         5232 TO        5232 BY           1
 REAL=  37.1580000       IMAG=  0.00000000    

 SPECIFIED CONSTRAINT TEMP FOR SELECTED NODES         5233 TO        5233 BY           1
 REAL=  37.1490000       IMAG=  0.00000000    

 SPECIFIED CONSTRAINT TEMP FOR SELECTED NODES         5234 TO        5234 BY           1
 REAL=  37.1400000       IMAG=  0.00000000    

 SPECIFIED CONSTRAINT TEMP FOR SELECTED NODES         5235 TO        5235 BY           1
 REAL=  37.1310000       IMAG=  0.00000000    

 SPECIFIED CONSTRAINT TEMP FOR SELECTED NODES         5236 TO        5236 BY           1
 REAL=  37.1230000       IMAG=  0.00000000    

 SPECIFIED CONSTRAINT TEMP FOR SELECTED NODES         5237 TO        5237 BY           1
 REAL=  37.1140000       IMAG=  0.00000000    

 SPECIFIED CONSTRAINT TEMP FOR SELECTED NODES         5238 TO        5238 BY           1
 REAL=  37.1050000       IMAG=  0.00000000    

 SPECIFIED CONSTRAINT TEMP FOR SELECTED NODES         5239 TO        5239 BY           1
 REAL=  37.0960000       IMAG=  0.00000000    

 SPECIFIED CONSTRAINT TEMP FOR SELECTED NODES         5240 TO        5240 BY           1
 REAL=  37.0870000       IMAG=  0.00000000    

 SPECIFIED CONSTRAINT TEMP FOR SELECTED NODES         5241 TO        5241 BY           1
 REAL=  37.0790000       IMAG=  0.00000000    

 SPECIFIED CONSTRAINT TEMP FOR SELECTED NODES         5242 TO        5242 BY           1
 REAL=  37.0700000       IMAG=  0.00000000    

 SPECIFIED CONSTRAINT TEMP FOR SELECTED NODES         5243 TO        5243 BY           1
 REAL=  37.0610000       IMAG=  0.00000000    

 SPECIFIED CONSTRAINT TEMP FOR SELECTED NODES         5244 TO        5244 BY           1
 REAL=  37.0520000       IMAG=  0.00000000    

 SPECIFIED CONSTRAINT TEMP FOR SELECTED NODES         5245 TO        5245 BY           1
 REAL=  37.0430000       IMAG=  0.00000000    

 SPECIFIED CONSTRAINT TEMP FOR SELECTED NODES         5246 TO        5246 BY           1
 REAL=  37.0350000       IMAG=  0.00000000    

 SPECIFIED CONSTRAINT TEMP FOR SELECTED NODES         5247 TO        5247 BY           1
 REAL=  37.0260000       IMAG=  0.00000000    

 SPECIFIED CONSTRAINT TEMP FOR SELECTED NODES         5248 TO        5248 BY           1
 REAL=  37.0170000       IMAG=  0.00000000    

 SPECIFIED CONSTRAINT TEMP FOR SELECTED NODES         5249 TO        5249 BY           1
 REAL=  37.0080000       IMAG=  0.00000000    

 SPECIFIED CONSTRAINT TEMP FOR SELECTED NODES         5250 TO        5250 BY           1
 REAL=  37.0000000       IMAG=  0.00000000    

 SPECIFIED CONSTRAINT TEMP FOR SELECTED NODES         5251 TO        5251 BY           1
 REAL=  36.9910000       IMAG=  0.00000000    

 SPECIFIED CONSTRAINT TEMP FOR SELECTED NODES         5252 TO        5252 BY           1
 REAL=  36.9820000       IMAG=  0.00000000    

 SPECIFIED CONSTRAINT TEMP FOR SELECTED NODES         5253 TO        5253 BY           1
 REAL=  36.9730000       IMAG=  0.00000000    

 SPECIFIED CONSTRAINT TEMP FOR SELECTED NODES         5254 TO        5254 BY           1
 REAL=  36.9640000       IMAG=  0.00000000    

 SPECIFIED CONSTRAINT TEMP FOR SELECTED NODES         5255 TO        5255 BY           1
 REAL=  36.9560000       IMAG=  0.00000000    

 SPECIFIED CONSTRAINT TEMP FOR SELECTED NODES         5256 TO        5256 BY           1
 REAL=  36.9470000       IMAG=  0.00000000    

 SPECIFIED CONSTRAINT TEMP FOR SELECTED NODES         5257 TO        5257 BY           1
 REAL=  36.9380000       IMAG=  0.00000000    

 SPECIFIED CONSTRAINT TEMP FOR SELECTED NODES         5258 TO        5258 BY           1
 REAL=  36.9290000       IMAG=  0.00000000    

 SPECIFIED CONSTRAINT TEMP FOR SELECTED NODES         5259 TO        5259 BY           1
 REAL=  36.9210000       IMAG=  0.00000000    

 SPECIFIED CONSTRAINT TEMP FOR SELECTED NODES         5260 TO        5260 BY           1
 REAL=  36.9120000       IMAG=  0.00000000    

 SPECIFIED CONSTRAINT TEMP FOR SELECTED NODES         5261 TO        5261 BY           1
 REAL=  36.9030000       IMAG=  0.00000000    

 SPECIFIED CONSTRAINT TEMP FOR SELECTED NODES         5262 TO        5262 BY           1
 REAL=  36.8940000       IMAG=  0.00000000    

 SPECIFIED CONSTRAINT TEMP FOR SELECTED NODES         5263 TO        5263 BY           1
 REAL=  36.8850000       IMAG=  0.00000000    

 SPECIFIED CONSTRAINT TEMP FOR SELECTED NODES         5264 TO        5264 BY           1
 REAL=  36.8770000       IMAG=  0.00000000    

 SPECIFIED CONSTRAINT TEMP FOR SELECTED NODES         5265 TO        5265 BY           1
 REAL=  36.8680000       IMAG=  0.00000000    

 SPECIFIED CONSTRAINT TEMP FOR SELECTED NODES         5266 TO        5266 BY           1
 REAL=  36.8590000       IMAG=  0.00000000    

 SPECIFIED CONSTRAINT TEMP FOR SELECTED NODES         5267 TO        5267 BY           1
 REAL=  36.8500000       IMAG=  0.00000000    

 SPECIFIED CONSTRAINT TEMP FOR SELECTED NODES         5268 TO        5268 BY           1
 REAL=  36.8410000       IMAG=  0.00000000    

 SPECIFIED CONSTRAINT TEMP FOR SELECTED NODES         5269 TO        5269 BY           1
 REAL=  36.8330000       IMAG=  0.00000000    

 SPECIFIED CONSTRAINT TEMP FOR SELECTED NODES         5270 TO        5270 BY           1
 REAL=  36.8240000       IMAG=  0.00000000    

 SPECIFIED CONSTRAINT TEMP FOR SELECTED NODES         5271 TO        5271 BY           1
 REAL=  36.8150000       IMAG=  0.00000000    

 SPECIFIED CONSTRAINT TEMP FOR SELECTED NODES         5272 TO        5272 BY           1
 REAL=  36.8060000       IMAG=  0.00000000    

 SPECIFIED CONSTRAINT TEMP FOR SELECTED NODES         5273 TO        5273 BY           1
 REAL=  36.7980000       IMAG=  0.00000000    

 SPECIFIED CONSTRAINT TEMP FOR SELECTED NODES         5274 TO        5274 BY           1
 REAL=  36.7890000       IMAG=  0.00000000    

 SPECIFIED CONSTRAINT TEMP FOR SELECTED NODES         5275 TO        5275 BY           1
 REAL=  36.7800000       IMAG=  0.00000000    

 SPECIFIED CONSTRAINT TEMP FOR SELECTED NODES         5276 TO        5276 BY           1
 REAL=  36.7710000       IMAG=  0.00000000    

 SPECIFIED CONSTRAINT TEMP FOR SELECTED NODES         5277 TO        5277 BY           1
 REAL=  36.7620000       IMAG=  0.00000000    

 SPECIFIED CONSTRAINT TEMP FOR SELECTED NODES         5278 TO        5278 BY           1
 REAL=  36.7540000       IMAG=  0.00000000    

 SPECIFIED CONSTRAINT TEMP FOR SELECTED NODES         5279 TO        5279 BY           1
 REAL=  36.7450000       IMAG=  0.00000000    

 SPECIFIED CONSTRAINT TEMP FOR SELECTED NODES         5280 TO        5280 BY           1
 REAL=  36.7360000       IMAG=  0.00000000    

 SPECIFIED CONSTRAINT TEMP FOR SELECTED NODES         5281 TO        5281 BY           1
 REAL=  36.7270000       IMAG=  0.00000000    

 SPECIFIED CONSTRAINT TEMP FOR SELECTED NODES         5282 TO        5282 BY           1
 REAL=  36.7190000       IMAG=  0.00000000    

 SPECIFIED CONSTRAINT TEMP FOR SELECTED NODES         5283 TO        5283 BY           1
 REAL=  36.7100000       IMAG=  0.00000000    

 SPECIFIED CONSTRAINT TEMP FOR SELECTED NODES         5284 TO        5284 BY           1
 REAL=  36.7010000       IMAG=  0.00000000    

 SPECIFIED CONSTRAINT TEMP FOR SELECTED NODES         5285 TO        5285 BY           1
 REAL=  36.6920000       IMAG=  0.00000000    

 SPECIFIED CONSTRAINT TEMP FOR SELECTED NODES         5286 TO        5286 BY           1
 REAL=  36.6830000       IMAG=  0.00000000    

 SPECIFIED CONSTRAINT TEMP FOR SELECTED NODES         5287 TO        5287 BY           1
 REAL=  36.6750000       IMAG=  0.00000000    

 SPECIFIED CONSTRAINT TEMP FOR SELECTED NODES         5288 TO        5288 BY           1
 REAL=  36.6660000       IMAG=  0.00000000    

 SPECIFIED CONSTRAINT TEMP FOR SELECTED NODES         5289 TO        5289 BY           1
 REAL=  36.6570000       IMAG=  0.00000000    

 SPECIFIED CONSTRAINT TEMP FOR SELECTED NODES         5290 TO        5290 BY           1
 REAL=  36.6480000       IMAG=  0.00000000    

 SPECIFIED CONSTRAINT TEMP FOR SELECTED NODES         5291 TO        5291 BY           1
 REAL=  36.6390000       IMAG=  0.00000000    

 SPECIFIED CONSTRAINT TEMP FOR SELECTED NODES         5292 TO        5292 BY           1
 REAL=  36.6310000       IMAG=  0.00000000    

 SPECIFIED CONSTRAINT TEMP FOR SELECTED NODES         5293 TO        5293 BY           1
 REAL=  36.6220000       IMAG=  0.00000000    

 SPECIFIED CONSTRAINT TEMP FOR SELECTED NODES         5294 TO        5294 BY           1
 REAL=  36.6130000       IMAG=  0.00000000    

 SPECIFIED CONSTRAINT TEMP FOR SELECTED NODES         5295 TO        5295 BY           1
 REAL=  36.6040000       IMAG=  0.00000000    

 SPECIFIED CONSTRAINT TEMP FOR SELECTED NODES         5296 TO        5296 BY           1
 REAL=  36.5960000       IMAG=  0.00000000    

 SPECIFIED CONSTRAINT TEMP FOR SELECTED NODES         5297 TO        5297 BY           1
 REAL=  36.5870000       IMAG=  0.00000000    

 SPECIFIED CONSTRAINT TEMP FOR SELECTED NODES         5298 TO        5298 BY           1
 REAL=  36.5780000       IMAG=  0.00000000    

 SPECIFIED CONSTRAINT TEMP FOR SELECTED NODES         5299 TO        5299 BY           1
 REAL=  37.3850000       IMAG=  0.00000000    

 SPECIFIED CONSTRAINT TEMP FOR SELECTED NODES         5300 TO        5300 BY           1
 REAL=  37.3770000       IMAG=  0.00000000    

 SPECIFIED CONSTRAINT TEMP FOR SELECTED NODES         5301 TO        5301 BY           1
 REAL=  37.3680000       IMAG=  0.00000000    

 SPECIFIED CONSTRAINT TEMP FOR SELECTED NODES         5302 TO        5302 BY           1
 REAL=  38.1500000       IMAG=  0.00000000    

 SPECIFIED CONSTRAINT TEMP FOR SELECTED NODES         5303 TO        5303 BY           1
 REAL=  38.1410000       IMAG=  0.00000000    

 SPECIFIED CONSTRAINT TEMP FOR SELECTED NODES         5304 TO        5304 BY           1
 REAL=  38.1320000       IMAG=  0.00000000    

 SPECIFIED CONSTRAINT TEMP FOR SELECTED NODES         5305 TO        5305 BY           1
 REAL=  38.1240000       IMAG=  0.00000000    

 SPECIFIED CONSTRAINT TEMP FOR SELECTED NODES         5306 TO        5306 BY           1
 REAL=  38.1150000       IMAG=  0.00000000    

 SPECIFIED CONSTRAINT TEMP FOR SELECTED NODES         5307 TO        5307 BY           1
 REAL=  38.1060000       IMAG=  0.00000000    

 SPECIFIED CONSTRAINT TEMP FOR SELECTED NODES         5308 TO        5308 BY           1
 REAL=  38.0970000       IMAG=  0.00000000    

 SPECIFIED CONSTRAINT TEMP FOR SELECTED NODES         5309 TO        5309 BY           1
 REAL=  38.0890000       IMAG=  0.00000000    

 SPECIFIED CONSTRAINT TEMP FOR SELECTED NODES         5310 TO        5310 BY           1
 REAL=  38.0800000       IMAG=  0.00000000    

 SPECIFIED CONSTRAINT TEMP FOR SELECTED NODES         5311 TO        5311 BY           1
 REAL=  38.0710000       IMAG=  0.00000000    

 SPECIFIED CONSTRAINT TEMP FOR SELECTED NODES         5312 TO        5312 BY           1
 REAL=  38.0620000       IMAG=  0.00000000    

 SPECIFIED CONSTRAINT TEMP FOR SELECTED NODES         5313 TO        5313 BY           1
 REAL=  38.0530000       IMAG=  0.00000000    

 SPECIFIED CONSTRAINT TEMP FOR SELECTED NODES         5314 TO        5314 BY           1
 REAL=  38.0450000       IMAG=  0.00000000    

 SPECIFIED CONSTRAINT TEMP FOR SELECTED NODES         5315 TO        5315 BY           1
 REAL=  38.0360000       IMAG=  0.00000000    

 SPECIFIED CONSTRAINT TEMP FOR SELECTED NODES         5316 TO        5316 BY           1
 REAL=  38.0270000       IMAG=  0.00000000    

 SPECIFIED CONSTRAINT TEMP FOR SELECTED NODES         5317 TO        5317 BY           1
 REAL=  38.0180000       IMAG=  0.00000000    

 SPECIFIED CONSTRAINT TEMP FOR SELECTED NODES         5318 TO        5318 BY           1
 REAL=  38.0090000       IMAG=  0.00000000    

 SPECIFIED CONSTRAINT TEMP FOR SELECTED NODES         5319 TO        5319 BY           1
 REAL=  38.0010000       IMAG=  0.00000000    

 SPECIFIED CONSTRAINT TEMP FOR SELECTED NODES         5320 TO        5320 BY           1
 REAL=  37.9920000       IMAG=  0.00000000    

 SPECIFIED CONSTRAINT TEMP FOR SELECTED NODES         5321 TO        5321 BY           1
 REAL=  37.9830000       IMAG=  0.00000000    

 SPECIFIED CONSTRAINT TEMP FOR SELECTED NODES         5322 TO        5322 BY           1
 REAL=  37.9740000       IMAG=  0.00000000    

 SPECIFIED CONSTRAINT TEMP FOR SELECTED NODES         5323 TO        5323 BY           1
 REAL=  37.9650000       IMAG=  0.00000000    

 SPECIFIED CONSTRAINT TEMP FOR SELECTED NODES         5324 TO        5324 BY           1
 REAL=  37.9570000       IMAG=  0.00000000    

 SPECIFIED CONSTRAINT TEMP FOR SELECTED NODES         5325 TO        5325 BY           1
 REAL=  37.9480000       IMAG=  0.00000000    

 SPECIFIED CONSTRAINT TEMP FOR SELECTED NODES         5326 TO        5326 BY           1
 REAL=  37.9390000       IMAG=  0.00000000    

 SPECIFIED CONSTRAINT TEMP FOR SELECTED NODES         5327 TO        5327 BY           1
 REAL=  37.9300000       IMAG=  0.00000000    

 SPECIFIED CONSTRAINT TEMP FOR SELECTED NODES         5328 TO        5328 BY           1
 REAL=  37.9210000       IMAG=  0.00000000    

 SPECIFIED CONSTRAINT TEMP FOR SELECTED NODES         5329 TO        5329 BY           1
 REAL=  37.9130000       IMAG=  0.00000000    

 SPECIFIED CONSTRAINT TEMP FOR SELECTED NODES         5330 TO        5330 BY           1
 REAL=  37.9040000       IMAG=  0.00000000    

 SPECIFIED CONSTRAINT TEMP FOR SELECTED NODES         5331 TO        5331 BY           1
 REAL=  37.8950000       IMAG=  0.00000000    

 SPECIFIED CONSTRAINT TEMP FOR SELECTED NODES         5332 TO        5332 BY           1
 REAL=  37.8860000       IMAG=  0.00000000    

 SPECIFIED CONSTRAINT TEMP FOR SELECTED NODES         5333 TO        5333 BY           1
 REAL=  37.8770000       IMAG=  0.00000000    

 SPECIFIED CONSTRAINT TEMP FOR SELECTED NODES         5334 TO        5334 BY           1
 REAL=  37.8690000       IMAG=  0.00000000    

 SPECIFIED CONSTRAINT TEMP FOR SELECTED NODES         5335 TO        5335 BY           1
 REAL=  37.8600000       IMAG=  0.00000000    

 SPECIFIED CONSTRAINT TEMP FOR SELECTED NODES         5336 TO        5336 BY           1
 REAL=  37.8510000       IMAG=  0.00000000    

 SPECIFIED CONSTRAINT TEMP FOR SELECTED NODES         5337 TO        5337 BY           1
 REAL=  37.8420000       IMAG=  0.00000000    

 SPECIFIED CONSTRAINT TEMP FOR SELECTED NODES         5338 TO        5338 BY           1
 REAL=  37.8330000       IMAG=  0.00000000    

 SPECIFIED CONSTRAINT TEMP FOR SELECTED NODES         5339 TO        5339 BY           1
 REAL=  37.8250000       IMAG=  0.00000000    

 SPECIFIED CONSTRAINT TEMP FOR SELECTED NODES         5340 TO        5340 BY           1
 REAL=  37.8160000       IMAG=  0.00000000    

 SPECIFIED CONSTRAINT TEMP FOR SELECTED NODES         5341 TO        5341 BY           1
 REAL=  37.8070000       IMAG=  0.00000000    

 SPECIFIED CONSTRAINT TEMP FOR SELECTED NODES         5342 TO        5342 BY           1
 REAL=  37.7980000       IMAG=  0.00000000    

 SPECIFIED CONSTRAINT TEMP FOR SELECTED NODES         5343 TO        5343 BY           1
 REAL=  37.7900000       IMAG=  0.00000000    

 SPECIFIED CONSTRAINT TEMP FOR SELECTED NODES         5344 TO        5344 BY           1
 REAL=  37.7810000       IMAG=  0.00000000    

 SPECIFIED CONSTRAINT TEMP FOR SELECTED NODES         5345 TO        5345 BY           1
 REAL=  37.7720000       IMAG=  0.00000000    

 SPECIFIED CONSTRAINT TEMP FOR SELECTED NODES         5346 TO        5346 BY           1
 REAL=  37.7630000       IMAG=  0.00000000    

 SPECIFIED CONSTRAINT TEMP FOR SELECTED NODES         5347 TO        5347 BY           1
 REAL=  37.7540000       IMAG=  0.00000000    

 SPECIFIED CONSTRAINT TEMP FOR SELECTED NODES         5348 TO        5348 BY           1
 REAL=  37.7460000       IMAG=  0.00000000    

 SPECIFIED CONSTRAINT TEMP FOR SELECTED NODES         5349 TO        5349 BY           1
 REAL=  37.7370000       IMAG=  0.00000000    

 SPECIFIED CONSTRAINT TEMP FOR SELECTED NODES         5350 TO        5350 BY           1
 REAL=  37.7280000       IMAG=  0.00000000    

 SPECIFIED CONSTRAINT TEMP FOR SELECTED NODES         5351 TO        5351 BY           1
 REAL=  37.7190000       IMAG=  0.00000000    

 SPECIFIED CONSTRAINT TEMP FOR SELECTED NODES         5352 TO        5352 BY           1
 REAL=  37.7100000       IMAG=  0.00000000    

 SPECIFIED CONSTRAINT TEMP FOR SELECTED NODES         5353 TO        5353 BY           1
 REAL=  37.7020000       IMAG=  0.00000000    

 SPECIFIED CONSTRAINT TEMP FOR SELECTED NODES         5354 TO        5354 BY           1
 REAL=  37.6930000       IMAG=  0.00000000    

 SPECIFIED CONSTRAINT TEMP FOR SELECTED NODES         5355 TO        5355 BY           1
 REAL=  37.6840000       IMAG=  0.00000000    

 SPECIFIED CONSTRAINT TEMP FOR SELECTED NODES         5356 TO        5356 BY           1
 REAL=  37.6750000       IMAG=  0.00000000    

 SPECIFIED CONSTRAINT TEMP FOR SELECTED NODES         5357 TO        5357 BY           1
 REAL=  37.6660000       IMAG=  0.00000000    

 SPECIFIED CONSTRAINT TEMP FOR SELECTED NODES         5358 TO        5358 BY           1
 REAL=  37.6580000       IMAG=  0.00000000    

 SPECIFIED CONSTRAINT TEMP FOR SELECTED NODES         5359 TO        5359 BY           1
 REAL=  37.6490000       IMAG=  0.00000000    

 SPECIFIED CONSTRAINT TEMP FOR SELECTED NODES         5360 TO        5360 BY           1
 REAL=  37.6400000       IMAG=  0.00000000    

 SPECIFIED CONSTRAINT TEMP FOR SELECTED NODES         5361 TO        5361 BY           1
 REAL=  37.6310000       IMAG=  0.00000000    

 SPECIFIED CONSTRAINT TEMP FOR SELECTED NODES         5362 TO        5362 BY           1
 REAL=  37.6220000       IMAG=  0.00000000    

 SPECIFIED CONSTRAINT TEMP FOR SELECTED NODES         5363 TO        5363 BY           1
 REAL=  37.6140000       IMAG=  0.00000000    

 SPECIFIED CONSTRAINT TEMP FOR SELECTED NODES         5364 TO        5364 BY           1
 REAL=  37.6050000       IMAG=  0.00000000    

 SPECIFIED CONSTRAINT TEMP FOR SELECTED NODES         5365 TO        5365 BY           1
 REAL=  37.5960000       IMAG=  0.00000000    

 SPECIFIED CONSTRAINT TEMP FOR SELECTED NODES         5366 TO        5366 BY           1
 REAL=  37.5870000       IMAG=  0.00000000    

 SPECIFIED CONSTRAINT TEMP FOR SELECTED NODES         5367 TO        5367 BY           1
 REAL=  37.5780000       IMAG=  0.00000000    

 SPECIFIED CONSTRAINT TEMP FOR SELECTED NODES         5368 TO        5368 BY           1
 REAL=  37.5700000       IMAG=  0.00000000    

 SPECIFIED CONSTRAINT TEMP FOR SELECTED NODES         5369 TO        5369 BY           1
 REAL=  37.5610000       IMAG=  0.00000000    

 SPECIFIED CONSTRAINT TEMP FOR SELECTED NODES         5370 TO        5370 BY           1
 REAL=  37.5520000       IMAG=  0.00000000    

 SPECIFIED CONSTRAINT TEMP FOR SELECTED NODES         5371 TO        5371 BY           1
 REAL=  37.5430000       IMAG=  0.00000000    

 SPECIFIED CONSTRAINT TEMP FOR SELECTED NODES         5372 TO        5372 BY           1
 REAL=  37.5340000       IMAG=  0.00000000    

 SPECIFIED CONSTRAINT TEMP FOR SELECTED NODES         5373 TO        5373 BY           1
 REAL=  37.5260000       IMAG=  0.00000000    

 SPECIFIED CONSTRAINT TEMP FOR SELECTED NODES         5374 TO        5374 BY           1
 REAL=  37.5170000       IMAG=  0.00000000    

 SPECIFIED CONSTRAINT TEMP FOR SELECTED NODES         5375 TO        5375 BY           1
 REAL=  37.5080000       IMAG=  0.00000000    

 SPECIFIED CONSTRAINT TEMP FOR SELECTED NODES         5376 TO        5376 BY           1
 REAL=  37.4990000       IMAG=  0.00000000    

 SPECIFIED CONSTRAINT TEMP FOR SELECTED NODES         5377 TO        5377 BY           1
 REAL=  37.4910000       IMAG=  0.00000000    

 SPECIFIED CONSTRAINT TEMP FOR SELECTED NODES         5378 TO        5378 BY           1
 REAL=  37.4820000       IMAG=  0.00000000    

 SPECIFIED CONSTRAINT TEMP FOR SELECTED NODES         5379 TO        5379 BY           1
 REAL=  37.4730000       IMAG=  0.00000000    

 SPECIFIED CONSTRAINT TEMP FOR SELECTED NODES         5380 TO        5380 BY           1
 REAL=  37.4640000       IMAG=  0.00000000    

 SPECIFIED CONSTRAINT TEMP FOR SELECTED NODES         5381 TO        5381 BY           1
 REAL=  37.4550000       IMAG=  0.00000000    

 SPECIFIED CONSTRAINT TEMP FOR SELECTED NODES         5382 TO        5382 BY           1
 REAL=  37.4470000       IMAG=  0.00000000    

 SPECIFIED CONSTRAINT TEMP FOR SELECTED NODES         5383 TO        5383 BY           1
 REAL=  37.4380000       IMAG=  0.00000000    

 SPECIFIED CONSTRAINT TEMP FOR SELECTED NODES         5384 TO        5384 BY           1
 REAL=  37.4290000       IMAG=  0.00000000    

 SPECIFIED CONSTRAINT TEMP FOR SELECTED NODES         5385 TO        5385 BY           1
 REAL=  37.4200000       IMAG=  0.00000000    

 SPECIFIED CONSTRAINT TEMP FOR SELECTED NODES         5386 TO        5386 BY           1
 REAL=  37.4110000       IMAG=  0.00000000    

 SPECIFIED CONSTRAINT TEMP FOR SELECTED NODES         5387 TO        5387 BY           1
 REAL=  37.4030000       IMAG=  0.00000000    

 SPECIFIED CONSTRAINT TEMP FOR SELECTED NODES         5388 TO        5388 BY           1
 REAL=  37.3940000       IMAG=  0.00000000    

 SPECIFIED CONSTRAINT TEMP FOR SELECTED NODES         5389 TO        5389 BY           1
 REAL=  38.3170000       IMAG=  0.00000000    

 SPECIFIED CONSTRAINT TEMP FOR SELECTED NODES         5390 TO        5390 BY           1
 REAL=  38.3090000       IMAG=  0.00000000    

 SPECIFIED CONSTRAINT TEMP FOR SELECTED NODES         5391 TO        5391 BY           1
 REAL=  38.3000000       IMAG=  0.00000000    

 SPECIFIED CONSTRAINT TEMP FOR SELECTED NODES         5392 TO        5392 BY           1
 REAL=  38.2910000       IMAG=  0.00000000    

 SPECIFIED CONSTRAINT TEMP FOR SELECTED NODES         5393 TO        5393 BY           1
 REAL=  38.2820000       IMAG=  0.00000000    

 SPECIFIED CONSTRAINT TEMP FOR SELECTED NODES         5394 TO        5394 BY           1
 REAL=  38.2730000       IMAG=  0.00000000    

 SPECIFIED CONSTRAINT TEMP FOR SELECTED NODES         5395 TO        5395 BY           1
 REAL=  38.2650000       IMAG=  0.00000000    

 SPECIFIED CONSTRAINT TEMP FOR SELECTED NODES         5396 TO        5396 BY           1
 REAL=  38.2560000       IMAG=  0.00000000    

 SPECIFIED CONSTRAINT TEMP FOR SELECTED NODES         5397 TO        5397 BY           1
 REAL=  38.2470000       IMAG=  0.00000000    

 SPECIFIED CONSTRAINT TEMP FOR SELECTED NODES         5398 TO        5398 BY           1
 REAL=  38.2380000       IMAG=  0.00000000    

 SPECIFIED CONSTRAINT TEMP FOR SELECTED NODES         5399 TO        5399 BY           1
 REAL=  38.2290000       IMAG=  0.00000000    

 SPECIFIED CONSTRAINT TEMP FOR SELECTED NODES         5400 TO        5400 BY           1
 REAL=  38.2210000       IMAG=  0.00000000    

 SPECIFIED CONSTRAINT TEMP FOR SELECTED NODES         5401 TO        5401 BY           1
 REAL=  38.2120000       IMAG=  0.00000000    

 SPECIFIED CONSTRAINT TEMP FOR SELECTED NODES         5402 TO        5402 BY           1
 REAL=  38.2030000       IMAG=  0.00000000    

 SPECIFIED CONSTRAINT TEMP FOR SELECTED NODES         5403 TO        5403 BY           1
 REAL=  38.1940000       IMAG=  0.00000000    

 SPECIFIED CONSTRAINT TEMP FOR SELECTED NODES         5404 TO        5404 BY           1
 REAL=  38.1850000       IMAG=  0.00000000    

 SPECIFIED CONSTRAINT TEMP FOR SELECTED NODES         5405 TO        5405 BY           1
 REAL=  38.1770000       IMAG=  0.00000000    

 SPECIFIED CONSTRAINT TEMP FOR SELECTED NODES         5406 TO        5406 BY           1
 REAL=  38.1680000       IMAG=  0.00000000    

 SPECIFIED CONSTRAINT TEMP FOR SELECTED NODES         5407 TO        5407 BY           1
 REAL=  38.1590000       IMAG=  0.00000000    

 SPECIFIED CONSTRAINT TEMP FOR SELECTED NODES         5408 TO        5408 BY           1
 REAL=  39.0570000       IMAG=  0.00000000    

 SPECIFIED CONSTRAINT TEMP FOR SELECTED NODES         5409 TO        5409 BY           1
 REAL=  39.0480000       IMAG=  0.00000000    

 SPECIFIED CONSTRAINT TEMP FOR SELECTED NODES         5410 TO        5410 BY           1
 REAL=  39.0400000       IMAG=  0.00000000    

 SPECIFIED CONSTRAINT TEMP FOR SELECTED NODES         5411 TO        5411 BY           1
 REAL=  39.0310000       IMAG=  0.00000000    

 SPECIFIED CONSTRAINT TEMP FOR SELECTED NODES         5412 TO        5412 BY           1
 REAL=  39.0220000       IMAG=  0.00000000    

 SPECIFIED CONSTRAINT TEMP FOR SELECTED NODES         5413 TO        5413 BY           1
 REAL=  39.0130000       IMAG=  0.00000000    

 SPECIFIED CONSTRAINT TEMP FOR SELECTED NODES         5414 TO        5414 BY           1
 REAL=  39.0040000       IMAG=  0.00000000    

 SPECIFIED CONSTRAINT TEMP FOR SELECTED NODES         5415 TO        5415 BY           1
 REAL=  38.9960000       IMAG=  0.00000000    

 SPECIFIED CONSTRAINT TEMP FOR SELECTED NODES         5416 TO        5416 BY           1
 REAL=  38.9870000       IMAG=  0.00000000    

 SPECIFIED CONSTRAINT TEMP FOR SELECTED NODES         5417 TO        5417 BY           1
 REAL=  38.9780000       IMAG=  0.00000000    

 SPECIFIED CONSTRAINT TEMP FOR SELECTED NODES         5418 TO        5418 BY           1
 REAL=  38.9690000       IMAG=  0.00000000    

 SPECIFIED CONSTRAINT TEMP FOR SELECTED NODES         5419 TO        5419 BY           1
 REAL=  38.9600000       IMAG=  0.00000000    

 SPECIFIED CONSTRAINT TEMP FOR SELECTED NODES         5420 TO        5420 BY           1
 REAL=  38.9520000       IMAG=  0.00000000    

 SPECIFIED CONSTRAINT TEMP FOR SELECTED NODES         5421 TO        5421 BY           1
 REAL=  38.9430000       IMAG=  0.00000000    

 SPECIFIED CONSTRAINT TEMP FOR SELECTED NODES         5422 TO        5422 BY           1
 REAL=  38.9340000       IMAG=  0.00000000    

 SPECIFIED CONSTRAINT TEMP FOR SELECTED NODES         5423 TO        5423 BY           1
 REAL=  38.9250000       IMAG=  0.00000000    

 SPECIFIED CONSTRAINT TEMP FOR SELECTED NODES         5424 TO        5424 BY           1
 REAL=  38.9160000       IMAG=  0.00000000    

 SPECIFIED CONSTRAINT TEMP FOR SELECTED NODES         5425 TO        5425 BY           1
 REAL=  38.9080000       IMAG=  0.00000000    

 SPECIFIED CONSTRAINT TEMP FOR SELECTED NODES         5426 TO        5426 BY           1
 REAL=  38.8990000       IMAG=  0.00000000    

 SPECIFIED CONSTRAINT TEMP FOR SELECTED NODES         5427 TO        5427 BY           1
 REAL=  38.8900000       IMAG=  0.00000000    

 SPECIFIED CONSTRAINT TEMP FOR SELECTED NODES         5428 TO        5428 BY           1
 REAL=  38.8810000       IMAG=  0.00000000    

 SPECIFIED CONSTRAINT TEMP FOR SELECTED NODES         5429 TO        5429 BY           1
 REAL=  38.8720000       IMAG=  0.00000000    

 SPECIFIED CONSTRAINT TEMP FOR SELECTED NODES         5430 TO        5430 BY           1
 REAL=  38.8640000       IMAG=  0.00000000    

 SPECIFIED CONSTRAINT TEMP FOR SELECTED NODES         5431 TO        5431 BY           1
 REAL=  38.8550000       IMAG=  0.00000000    

 SPECIFIED CONSTRAINT TEMP FOR SELECTED NODES         5432 TO        5432 BY           1
 REAL=  38.8460000       IMAG=  0.00000000    

 SPECIFIED CONSTRAINT TEMP FOR SELECTED NODES         5433 TO        5433 BY           1
 REAL=  38.8370000       IMAG=  0.00000000    

 SPECIFIED CONSTRAINT TEMP FOR SELECTED NODES         5434 TO        5434 BY           1
 REAL=  38.8280000       IMAG=  0.00000000    

 SPECIFIED CONSTRAINT TEMP FOR SELECTED NODES         5435 TO        5435 BY           1
 REAL=  38.8190000       IMAG=  0.00000000    

 SPECIFIED CONSTRAINT TEMP FOR SELECTED NODES         5436 TO        5436 BY           1
 REAL=  38.8110000       IMAG=  0.00000000    

 SPECIFIED CONSTRAINT TEMP FOR SELECTED NODES         5437 TO        5437 BY           1
 REAL=  38.8020000       IMAG=  0.00000000    

 SPECIFIED CONSTRAINT TEMP FOR SELECTED NODES         5438 TO        5438 BY           1
 REAL=  38.7930000       IMAG=  0.00000000    

 SPECIFIED CONSTRAINT TEMP FOR SELECTED NODES         5439 TO        5439 BY           1
 REAL=  38.7840000       IMAG=  0.00000000    

 SPECIFIED CONSTRAINT TEMP FOR SELECTED NODES         5440 TO        5440 BY           1
 REAL=  38.7750000       IMAG=  0.00000000    

 SPECIFIED CONSTRAINT TEMP FOR SELECTED NODES         5441 TO        5441 BY           1
 REAL=  38.7670000       IMAG=  0.00000000    

 SPECIFIED CONSTRAINT TEMP FOR SELECTED NODES         5442 TO        5442 BY           1
 REAL=  38.7580000       IMAG=  0.00000000    

 SPECIFIED CONSTRAINT TEMP FOR SELECTED NODES         5443 TO        5443 BY           1
 REAL=  38.7490000       IMAG=  0.00000000    

 SPECIFIED CONSTRAINT TEMP FOR SELECTED NODES         5444 TO        5444 BY           1
 REAL=  38.7400000       IMAG=  0.00000000    

 SPECIFIED CONSTRAINT TEMP FOR SELECTED NODES         5445 TO        5445 BY           1
 REAL=  38.7310000       IMAG=  0.00000000    

 SPECIFIED CONSTRAINT TEMP FOR SELECTED NODES         5446 TO        5446 BY           1
 REAL=  38.7230000       IMAG=  0.00000000    

 SPECIFIED CONSTRAINT TEMP FOR SELECTED NODES         5447 TO        5447 BY           1
 REAL=  38.7140000       IMAG=  0.00000000    

 SPECIFIED CONSTRAINT TEMP FOR SELECTED NODES         5448 TO        5448 BY           1
 REAL=  38.7050000       IMAG=  0.00000000    

 SPECIFIED CONSTRAINT TEMP FOR SELECTED NODES         5449 TO        5449 BY           1
 REAL=  38.6960000       IMAG=  0.00000000    

 SPECIFIED CONSTRAINT TEMP FOR SELECTED NODES         5450 TO        5450 BY           1
 REAL=  38.6870000       IMAG=  0.00000000    

 SPECIFIED CONSTRAINT TEMP FOR SELECTED NODES         5451 TO        5451 BY           1
 REAL=  38.6790000       IMAG=  0.00000000    

 SPECIFIED CONSTRAINT TEMP FOR SELECTED NODES         5452 TO        5452 BY           1
 REAL=  38.6700000       IMAG=  0.00000000    

 SPECIFIED CONSTRAINT TEMP FOR SELECTED NODES         5453 TO        5453 BY           1
 REAL=  38.6610000       IMAG=  0.00000000    

 SPECIFIED CONSTRAINT TEMP FOR SELECTED NODES         5454 TO        5454 BY           1
 REAL=  38.6520000       IMAG=  0.00000000    

 SPECIFIED CONSTRAINT TEMP FOR SELECTED NODES         5455 TO        5455 BY           1
 REAL=  38.6430000       IMAG=  0.00000000    

 SPECIFIED CONSTRAINT TEMP FOR SELECTED NODES         5456 TO        5456 BY           1
 REAL=  38.6350000       IMAG=  0.00000000    

 SPECIFIED CONSTRAINT TEMP FOR SELECTED NODES         5457 TO        5457 BY           1
 REAL=  38.6260000       IMAG=  0.00000000    

 SPECIFIED CONSTRAINT TEMP FOR SELECTED NODES         5458 TO        5458 BY           1
 REAL=  38.6170000       IMAG=  0.00000000    

 SPECIFIED CONSTRAINT TEMP FOR SELECTED NODES         5459 TO        5459 BY           1
 REAL=  38.6080000       IMAG=  0.00000000    

 SPECIFIED CONSTRAINT TEMP FOR SELECTED NODES         5460 TO        5460 BY           1
 REAL=  38.5990000       IMAG=  0.00000000    

 SPECIFIED CONSTRAINT TEMP FOR SELECTED NODES         5461 TO        5461 BY           1
 REAL=  38.5910000       IMAG=  0.00000000    

 SPECIFIED CONSTRAINT TEMP FOR SELECTED NODES         5462 TO        5462 BY           1
 REAL=  38.5820000       IMAG=  0.00000000    

 SPECIFIED CONSTRAINT TEMP FOR SELECTED NODES         5463 TO        5463 BY           1
 REAL=  38.5730000       IMAG=  0.00000000    

 SPECIFIED CONSTRAINT TEMP FOR SELECTED NODES         5464 TO        5464 BY           1
 REAL=  38.5640000       IMAG=  0.00000000    

 SPECIFIED CONSTRAINT TEMP FOR SELECTED NODES         5465 TO        5465 BY           1
 REAL=  38.5550000       IMAG=  0.00000000    

 SPECIFIED CONSTRAINT TEMP FOR SELECTED NODES         5466 TO        5466 BY           1
 REAL=  38.5460000       IMAG=  0.00000000    

 SPECIFIED CONSTRAINT TEMP FOR SELECTED NODES         5467 TO        5467 BY           1
 REAL=  38.5380000       IMAG=  0.00000000    

 SPECIFIED CONSTRAINT TEMP FOR SELECTED NODES         5468 TO        5468 BY           1
 REAL=  38.5290000       IMAG=  0.00000000    

 SPECIFIED CONSTRAINT TEMP FOR SELECTED NODES         5469 TO        5469 BY           1
 REAL=  38.5200000       IMAG=  0.00000000    

 SPECIFIED CONSTRAINT TEMP FOR SELECTED NODES         5470 TO        5470 BY           1
 REAL=  38.5110000       IMAG=  0.00000000    

 SPECIFIED CONSTRAINT TEMP FOR SELECTED NODES         5471 TO        5471 BY           1
 REAL=  38.5020000       IMAG=  0.00000000    

 SPECIFIED CONSTRAINT TEMP FOR SELECTED NODES         5472 TO        5472 BY           1
 REAL=  38.4940000       IMAG=  0.00000000    

 SPECIFIED CONSTRAINT TEMP FOR SELECTED NODES         5473 TO        5473 BY           1
 REAL=  38.4850000       IMAG=  0.00000000    

 SPECIFIED CONSTRAINT TEMP FOR SELECTED NODES         5474 TO        5474 BY           1
 REAL=  38.4760000       IMAG=  0.00000000    

 SPECIFIED CONSTRAINT TEMP FOR SELECTED NODES         5475 TO        5475 BY           1
 REAL=  38.4670000       IMAG=  0.00000000    

 SPECIFIED CONSTRAINT TEMP FOR SELECTED NODES         5476 TO        5476 BY           1
 REAL=  38.4580000       IMAG=  0.00000000    

 SPECIFIED CONSTRAINT TEMP FOR SELECTED NODES         5477 TO        5477 BY           1
 REAL=  38.4500000       IMAG=  0.00000000    

 SPECIFIED CONSTRAINT TEMP FOR SELECTED NODES         5478 TO        5478 BY           1
 REAL=  38.4410000       IMAG=  0.00000000    

 SPECIFIED CONSTRAINT TEMP FOR SELECTED NODES         5479 TO        5479 BY           1
 REAL=  38.4320000       IMAG=  0.00000000    

 SPECIFIED CONSTRAINT TEMP FOR SELECTED NODES         5480 TO        5480 BY           1
 REAL=  38.4230000       IMAG=  0.00000000    

 SPECIFIED CONSTRAINT TEMP FOR SELECTED NODES         5481 TO        5481 BY           1
 REAL=  38.4140000       IMAG=  0.00000000    

 SPECIFIED CONSTRAINT TEMP FOR SELECTED NODES         5482 TO        5482 BY           1
 REAL=  38.4060000       IMAG=  0.00000000    

 SPECIFIED CONSTRAINT TEMP FOR SELECTED NODES         5483 TO        5483 BY           1
 REAL=  38.3970000       IMAG=  0.00000000    

 SPECIFIED CONSTRAINT TEMP FOR SELECTED NODES         5484 TO        5484 BY           1
 REAL=  38.3880000       IMAG=  0.00000000    

 SPECIFIED CONSTRAINT TEMP FOR SELECTED NODES         5485 TO        5485 BY           1
 REAL=  38.3790000       IMAG=  0.00000000    

 SPECIFIED CONSTRAINT TEMP FOR SELECTED NODES         5486 TO        5486 BY           1
 REAL=  38.3700000       IMAG=  0.00000000    

 SPECIFIED CONSTRAINT TEMP FOR SELECTED NODES         5487 TO        5487 BY           1
 REAL=  38.3620000       IMAG=  0.00000000    

 SPECIFIED CONSTRAINT TEMP FOR SELECTED NODES         5488 TO        5488 BY           1
 REAL=  38.3530000       IMAG=  0.00000000    

 SPECIFIED CONSTRAINT TEMP FOR SELECTED NODES         5489 TO        5489 BY           1
 REAL=  38.3440000       IMAG=  0.00000000    

 SPECIFIED CONSTRAINT TEMP FOR SELECTED NODES         5490 TO        5490 BY           1
 REAL=  38.3350000       IMAG=  0.00000000    

 SPECIFIED CONSTRAINT TEMP FOR SELECTED NODES         5491 TO        5491 BY           1
 REAL=  38.3260000       IMAG=  0.00000000    

 SPECIFIED CONSTRAINT TEMP FOR SELECTED NODES         5492 TO        5492 BY           1
 REAL=  39.1740000       IMAG=  0.00000000    

 SPECIFIED CONSTRAINT TEMP FOR SELECTED NODES         5493 TO        5493 BY           1
 REAL=  39.1660000       IMAG=  0.00000000    

 SPECIFIED CONSTRAINT TEMP FOR SELECTED NODES         5494 TO        5494 BY           1
 REAL=  39.1570000       IMAG=  0.00000000    

 SPECIFIED CONSTRAINT TEMP FOR SELECTED NODES         5495 TO        5495 BY           1
 REAL=  39.1490000       IMAG=  0.00000000    

 SPECIFIED CONSTRAINT TEMP FOR SELECTED NODES         5496 TO        5496 BY           1
 REAL=  39.1410000       IMAG=  0.00000000    

 SPECIFIED CONSTRAINT TEMP FOR SELECTED NODES         5497 TO        5497 BY           1
 REAL=  39.1320000       IMAG=  0.00000000    

 SPECIFIED CONSTRAINT TEMP FOR SELECTED NODES         5498 TO        5498 BY           1
 REAL=  39.1240000       IMAG=  0.00000000    

 SPECIFIED CONSTRAINT TEMP FOR SELECTED NODES         5499 TO        5499 BY           1
 REAL=  39.1160000       IMAG=  0.00000000    

 SPECIFIED CONSTRAINT TEMP FOR SELECTED NODES         5500 TO        5500 BY           1
 REAL=  39.1070000       IMAG=  0.00000000    

 SPECIFIED CONSTRAINT TEMP FOR SELECTED NODES         5501 TO        5501 BY           1
 REAL=  39.0990000       IMAG=  0.00000000    

 SPECIFIED CONSTRAINT TEMP FOR SELECTED NODES         5502 TO        5502 BY           1
 REAL=  39.0910000       IMAG=  0.00000000    

 SPECIFIED CONSTRAINT TEMP FOR SELECTED NODES         5503 TO        5503 BY           1
 REAL=  39.0820000       IMAG=  0.00000000    

 SPECIFIED CONSTRAINT TEMP FOR SELECTED NODES         5504 TO        5504 BY           1
 REAL=  39.0740000       IMAG=  0.00000000    

 SPECIFIED CONSTRAINT TEMP FOR SELECTED NODES         5505 TO        5505 BY           1
 REAL=  39.0660000       IMAG=  0.00000000    

 SPECIFIED CONSTRAINT TEMP FOR SELECTED NODES         5506 TO        5506 BY           1
 REAL=  39.8630000       IMAG=  0.00000000    

 SPECIFIED CONSTRAINT TEMP FOR SELECTED NODES         5507 TO        5507 BY           1
 REAL=  39.8540000       IMAG=  0.00000000    

 SPECIFIED CONSTRAINT TEMP FOR SELECTED NODES         5508 TO        5508 BY           1
 REAL=  39.8450000       IMAG=  0.00000000    

 SPECIFIED CONSTRAINT TEMP FOR SELECTED NODES         5509 TO        5509 BY           1
 REAL=  39.8370000       IMAG=  0.00000000    

 SPECIFIED CONSTRAINT TEMP FOR SELECTED NODES         5510 TO        5510 BY           1
 REAL=  39.8280000       IMAG=  0.00000000    

 SPECIFIED CONSTRAINT TEMP FOR SELECTED NODES         5511 TO        5511 BY           1
 REAL=  39.8190000       IMAG=  0.00000000    

 SPECIFIED CONSTRAINT TEMP FOR SELECTED NODES         5512 TO        5512 BY           1
 REAL=  39.8100000       IMAG=  0.00000000    

 SPECIFIED CONSTRAINT TEMP FOR SELECTED NODES         5513 TO        5513 BY           1
 REAL=  39.8010000       IMAG=  0.00000000    

 SPECIFIED CONSTRAINT TEMP FOR SELECTED NODES         5514 TO        5514 BY           1
 REAL=  39.7920000       IMAG=  0.00000000    

 SPECIFIED CONSTRAINT TEMP FOR SELECTED NODES         5515 TO        5515 BY           1
 REAL=  39.7840000       IMAG=  0.00000000    

 SPECIFIED CONSTRAINT TEMP FOR SELECTED NODES         5516 TO        5516 BY           1
 REAL=  39.7750000       IMAG=  0.00000000    

 SPECIFIED CONSTRAINT TEMP FOR SELECTED NODES         5517 TO        5517 BY           1
 REAL=  39.7660000       IMAG=  0.00000000    

 SPECIFIED CONSTRAINT TEMP FOR SELECTED NODES         5518 TO        5518 BY           1
 REAL=  39.7570000       IMAG=  0.00000000    

 SPECIFIED CONSTRAINT TEMP FOR SELECTED NODES         5519 TO        5519 BY           1
 REAL=  39.7480000       IMAG=  0.00000000    

 SPECIFIED CONSTRAINT TEMP FOR SELECTED NODES         5520 TO        5520 BY           1
 REAL=  39.7390000       IMAG=  0.00000000    

 SPECIFIED CONSTRAINT TEMP FOR SELECTED NODES         5521 TO        5521 BY           1
 REAL=  39.7310000       IMAG=  0.00000000    

 SPECIFIED CONSTRAINT TEMP FOR SELECTED NODES         5522 TO        5522 BY           1
 REAL=  39.7220000       IMAG=  0.00000000    

[...]
 REAL=  44.2840000       IMAG=  0.00000000    

 SPECIFIED CONSTRAINT TEMP FOR SELECTED NODES          434 TO         434 BY           1
 REAL=  44.3060000       IMAG=  0.00000000    

 SPECIFIED CONSTRAINT TEMP FOR SELECTED NODES          435 TO         435 BY           1
 REAL=  44.3280000       IMAG=  0.00000000    

 SPECIFIED CONSTRAINT TEMP FOR SELECTED NODES          436 TO         436 BY           1
 REAL=  44.3500000       IMAG=  0.00000000    

 SPECIFIED CONSTRAINT TEMP FOR SELECTED NODES          437 TO         437 BY           1
 REAL=  44.3720000       IMAG=  0.00000000    

 SPECIFIED CONSTRAINT TEMP FOR SELECTED NODES          438 TO         438 BY           1
 REAL=  44.3940000       IMAG=  0.00000000    

 SPECIFIED CONSTRAINT TEMP FOR SELECTED NODES          439 TO         439 BY           1
 REAL=  44.4160000       IMAG=  0.00000000    

 SPECIFIED CONSTRAINT TEMP FOR SELECTED NODES          440 TO         440 BY           1
 REAL=  44.4380000       IMAG=  0.00000000    

 SPECIFIED CONSTRAINT TEMP FOR SELECTED NODES          441 TO         441 BY           1
 REAL=  44.4600000       IMAG=  0.00000000    

 SPECIFIED CONSTRAINT TEMP FOR SELECTED NODES          442 TO         442 BY           1
 REAL=  44.8740000       IMAG=  0.00000000    

 SPECIFIED CONSTRAINT TEMP FOR SELECTED NODES          443 TO         443 BY           1
 REAL=  44.5040000       IMAG=  0.00000000    

 SPECIFIED CONSTRAINT TEMP FOR SELECTED NODES          444 TO         444 BY           1
 REAL=  44.5250000       IMAG=  0.00000000    

 SPECIFIED CONSTRAINT TEMP FOR SELECTED NODES          445 TO         445 BY           1
 REAL=  44.5470000       IMAG=  0.00000000    

 SPECIFIED CONSTRAINT TEMP FOR SELECTED NODES          446 TO         446 BY           1
 REAL=  44.5690000       IMAG=  0.00000000    

 SPECIFIED CONSTRAINT TEMP FOR SELECTED NODES          447 TO         447 BY           1
 REAL=  44.5910000       IMAG=  0.00000000    

 SPECIFIED CONSTRAINT TEMP FOR SELECTED NODES          448 TO         448 BY           1
 REAL=  44.6120000       IMAG=  0.00000000    

 SPECIFIED CONSTRAINT TEMP FOR SELECTED NODES          449 TO         449 BY           1
 REAL=  44.6340000       IMAG=  0.00000000    

 SPECIFIED CONSTRAINT TEMP FOR SELECTED NODES          450 TO         450 BY           1
 REAL=  44.6560000       IMAG=  0.00000000    

 SPECIFIED CONSTRAINT TEMP FOR SELECTED NODES          451 TO         451 BY           1
 REAL=  44.6780000       IMAG=  0.00000000    

 SPECIFIED CONSTRAINT TEMP FOR SELECTED NODES          452 TO         452 BY           1
 REAL=  44.7000000       IMAG=  0.00000000    

 SPECIFIED CONSTRAINT TEMP FOR SELECTED NODES          453 TO         453 BY           1
 REAL=  44.7210000       IMAG=  0.00000000    

 SPECIFIED CONSTRAINT TEMP FOR SELECTED NODES          454 TO         454 BY           1
 REAL=  44.7430000       IMAG=  0.00000000    

 SPECIFIED CONSTRAINT TEMP FOR SELECTED NODES          455 TO         455 BY           1
 REAL=  44.7650000       IMAG=  0.00000000    

 SPECIFIED CONSTRAINT TEMP FOR SELECTED NODES          456 TO         456 BY           1
 REAL=  44.7870000       IMAG=  0.00000000    

 SPECIFIED CONSTRAINT TEMP FOR SELECTED NODES          457 TO         457 BY           1
 REAL=  44.8080000       IMAG=  0.00000000    

 SPECIFIED CONSTRAINT TEMP FOR SELECTED NODES          458 TO         458 BY           1
 REAL=  44.8300000       IMAG=  0.00000000    

 SPECIFIED CONSTRAINT TEMP FOR SELECTED NODES          459 TO         459 BY           1
 REAL=  44.8520000       IMAG=  0.00000000    

 SPECIFIED CONSTRAINT TEMP FOR SELECTED NODES          460 TO         460 BY           1
 REAL=  45.0000000       IMAG=  0.00000000    

 SPECIFIED CONSTRAINT TEMP FOR SELECTED NODES          461 TO         461 BY           1
 REAL=  44.9790000       IMAG=  0.00000000    

 SPECIFIED CONSTRAINT TEMP FOR SELECTED NODES          462 TO         462 BY           1
 REAL=  44.9580000       IMAG=  0.00000000    

 SPECIFIED CONSTRAINT TEMP FOR SELECTED NODES          463 TO         463 BY           1
 REAL=  44.9370000       IMAG=  0.00000000    

 SPECIFIED CONSTRAINT TEMP FOR SELECTED NODES          464 TO         464 BY           1
 REAL=  44.9160000       IMAG=  0.00000000    

 SPECIFIED CONSTRAINT TEMP FOR SELECTED NODES          465 TO         465 BY           1
 REAL=  44.8950000       IMAG=  0.00000000    

 *GET  ANSINTER_  FROM  ACTI  ITEM=INT        VALUE=  0.00000000    

 *IF  ANSINTER_                         ( =   0.00000     )  NE  
      0                                 ( =   0.00000     )  THEN    

 *ENDIF

 *** NOTE ***                            CP =       1.203   TIME= 16:27:08
 The automatic domain decomposition logic has selected the MESH domain   
 decomposition method with 2 processes per solution.                     

 *****  ANSYS SOLVE    COMMAND  *****

 *** WARNING ***                         CP =       1.203   TIME= 16:27:08
 Element shape checking is currently inactive.  Issue SHPP,ON or         
 SHPP,WARN to reactivate, if desired.                                    

 *** NOTE ***                            CP =       1.234   TIME= 16:27:08
 The model data was checked and warning messages were found.             
  Please review output or errors file (                                  
 D:\石甘泉文件夹\UnderfloorHeatingLayout\fig\experiment1\bedroom1\ours\a 
 ansys\_ProjectScratch\Scr99A8\file0.err ) for these warning messages.   

 *** ANSYS - ENGINEERING ANALYSIS SYSTEM  RELEASE 2020 R2          20.2     ***
 DISTRIBUTED ANSYS Mechanical Enterprise                       

 20120530  VERSION=WINDOWS x64   16:27:08  FEB 11, 2022 CP=      1.234

 layout--Steady-State Thermal (A5)                                             



                       S O L U T I O N   O P T I O N S

   PROBLEM DIMENSIONALITY. . . . . . . . . . . . .3-D                  
   DEGREES OF FREEDOM. . . . . . TEMP
   ANALYSIS TYPE . . . . . . . . . . . . . . . . .STATIC (STEADY-STATE)
   OFFSET TEMPERATURE FROM ABSOLUTE ZERO . . . . .  273.15    
   GLOBALLY ASSEMBLED MATRIX . . . . . . . . . . .SYMMETRIC  

 *** WARNING ***                         CP =       1.266   TIME= 16:27:08
 Material number 10 (used by element 25401) should normally have at      
 least one MP or one TB type command associated with it.  Output of      
 energy by material may not be available.                                

 *** NOTE ***                            CP =       1.328   TIME= 16:27:08
 The step data was checked and warning messages were found.              
  Please review output or errors file (                                  
 D:\石甘泉文件夹\UnderfloorHeatingLayout\fig\experiment1\bedroom1\ours\a 
 ansys\_ProjectScratch\Scr99A8\file0.err ) for these warning messages.   

 *** NOTE ***                            CP =       1.328   TIME= 16:27:08
 The conditions for direct assembly have been met.  No .emat or .erot    
 files will be produced.                                                 

  
  
     D I S T R I B U T E D   D O M A I N   D E C O M P O S E R
  
  ...Number of elements: 44637
  ...Number of nodes:    25586
  ...Decompose to 2 CPU domains
  ...Element load balance ratio =     1.057


                      L O A D   S T E P   O P T I O N S

   LOAD STEP NUMBER. . . . . . . . . . . . . . . .     1
   TIME AT END OF THE LOAD STEP. . . . . . . . . .  1.0000    
   AUTOMATIC TIME STEPPING . . . . . . . . . . . .    ON
      INITIAL NUMBER OF SUBSTEPS . . . . . . . . .     1
      MAXIMUM NUMBER OF SUBSTEPS . . . . . . . . .    10
      MINIMUM NUMBER OF SUBSTEPS . . . . . . . . .     1
   STEP CHANGE BOUNDARY CONDITIONS . . . . . . . .    NO
   PRINT OUTPUT CONTROLS . . . . . . . . . . . . .NO PRINTOUT
   DATABASE OUTPUT CONTROLS
      ITEM     FREQUENCY   COMPONENT
       ALL       NONE               
      NSOL        ALL               
      RSOL        ALL               
      EANG        ALL               
      VENG        ALL               
      FFLU        ALL               
      CONT        ALL               
      MISC        ALL       _ELMISC 


 SOLUTION MONITORING INFO IS WRITTEN TO FILE= file.mntr                                                                                                                                                                                                                                                           




            **** CENTER OF MASS, MASS, AND MASS MOMENTS OF INERTIA ****

  CALCULATIONS ASSUME ELEMENT MASS AT ELEMENT CENTROID

  TOTAL MASS =   131.96    

                           MOM. OF INERTIA         MOM. OF INERTIA
  CENTER OF MASS            ABOUT ORIGIN        ABOUT CENTER OF MASS

  XC =   5.2244          IXX =    3582.          IXX =    618.8    
  YC =   4.7387          IYY =    4645.          IYY =    1043.    
  ZC =   0.0000          IZZ =    8226.          IZZ =    1662.    
                         IXY =   -3465.          IXY =   -198.0    
                         IYZ =    0.000          IYZ =    0.000    
                         IZX =    0.000          IZX =    0.000    


  *** MASS SUMMARY BY ELEMENT TYPE ***

  TYPE      MASS
     2   24.7538    
     3   18.3484    
     4   20.5187    
     5   18.0611    
     6   14.5977    
     7   5.76343    
     8   20.0079    
     9   9.90471    

 Range of element maximum matrix coefficients in global coordinates
 Maximum = 1.38990123 at element 35.                                     
 Minimum = 3.990704579E-04 at element 25408.                             

   *** ELEMENT MATRIX FORMULATION TIMES
     TYPE    NUMBER   ENAME      TOTAL CP  AVE CP

        1     19237  SHELL131      0.281   0.000015
        2      1146  LINK33        0.000   0.000000
        3       857  LINK33        0.000   0.000000
        4       951  LINK33        0.000   0.000000
        5       845  LINK33        0.000   0.000000
        6       688  LINK33        0.000   0.000000
        7       275  LINK33        0.000   0.000000
        8       937  LINK33        0.000   0.000000
        9       464  LINK33        0.031   0.000067
       10     19237  SURF152       0.141   0.000007
 Time at end of element matrix formulation CP = 1.96875.                 

 DISTRIBUTED SPARSE MATRIX DIRECT SOLVER.
  Number of equations =       13252,    Maximum wavefront =      8

  Local memory allocated for solver              =      4.172 MB
  Local memory required for in-core solution     =      4.043 MB
  Local memory required for out-of-core solution =      2.921 MB

  Total memory allocated for solver              =      7.784 MB
  Total memory required for in-core solution     =      7.550 MB
  Total memory required for out-of-core solution =      5.662 MB

 *** NOTE ***                            CP =       2.047   TIME= 16:27:08
 The Distributed Sparse Matrix Solver is currently running in the        
 in-core memory mode.  This memory mode uses the most amount of memory   
 in order to avoid using the hard drive as much as possible, which most  
 often results in the fastest solution time.  This mode is recommended   
 if enough physical memory is present to accommodate all of the solver   
 data.                                                                   
 Distributed sparse solver maximum pivot= 1.50570988 at node 11474 TEMP. 
 Distributed sparse solver minimum pivot= 0.182637054 at node 6310 TEMP. 
 Distributed sparse solver minimum pivot in absolute value= 0.182637054  
 at node 6310 TEMP.                                                      

   *** ELEMENT RESULT CALCULATION TIMES
     TYPE    NUMBER   ENAME      TOTAL CP  AVE CP

        1     19237  SHELL131      0.234   0.000012
        2      1146  LINK33        0.000   0.000000
        3       857  LINK33        0.000   0.000000
        4       951  LINK33        0.016   0.000016
        5       845  LINK33        0.016   0.000018
        6       688  LINK33        0.000   0.000000
        7       275  LINK33        0.000   0.000000
        8       937  LINK33        0.000   0.000000
        9       464  LINK33        0.000   0.000000
       10     19237  SURF152       0.078   0.000004

   *** NODAL LOAD CALCULATION TIMES
     TYPE    NUMBER   ENAME      TOTAL CP  AVE CP

        1     19237  SHELL131      0.109   0.000006
        2      1146  LINK33        0.000   0.000000
        3       857  LINK33        0.000   0.000000
        4       951  LINK33        0.000   0.000000
        5       845  LINK33        0.000   0.000000
        6       688  LINK33        0.000   0.000000
        7       275  LINK33        0.000   0.000000
        8       937  LINK33        0.000   0.000000
        9       464  LINK33        0.016   0.000034
       10     19237  SURF152       0.047   0.000002
 *** LOAD STEP     1   SUBSTEP     1  COMPLETED.    CUM ITER =      1
 *** TIME =   1.00000         TIME INC =   1.00000      NEW TRIANG MATRIX


 *** ANSYS BINARY FILE STATISTICS
  BUFFER SIZE USED= 16384
        1.250 MB WRITTEN ON ASSEMBLED MATRIX FILE: file0.full
        6.875 MB WRITTEN ON RESULTS FILE: file0.rth
 *************** Write FE CONNECTORS *********

 WRITE OUT CONSTRAINT EQUATIONS TO FILE= file.ce                                                                                                                                                                                                                                                             
 ****************************************************
 *************** FINISHED SOLVE FOR LS 1 *************

 *GET  _WALLASOL  FROM  ACTI  ITEM=TIME WALL  VALUE=  16.4525000    

 FINISH SOLUTION PROCESSING


 ***** ROUTINE COMPLETED *****  CP =         2.469



 *** ANSYS - ENGINEERING ANALYSIS SYSTEM  RELEASE 2020 R2          20.2     ***
 DISTRIBUTED ANSYS Mechanical Enterprise                       

 20120530  VERSION=WINDOWS x64   16:27:09  FEB 11, 2022 CP=      2.469

 layout--Steady-State Thermal (A5)                                             



          ***** ANSYS RESULTS INTERPRETATION (POST1) *****

 *** NOTE ***                            CP =       2.469   TIME= 16:27:09
 Reading results into the database (SET command) will update the current 
 displacement and force boundary conditions in the database with the     
 values from the results file for that load set.  Note that any          
 subsequent solutions will use these values unless action is taken to    
 either SAVE the current values or not overwrite them (/EXIT,NOSAVE).    

 Set Encoding of XML File to:ISO-8859-1

 Set Output of XML File to:
     PARM,     ,     ,     ,     ,     ,     ,     ,     ,     ,     ,     ,
         ,     ,     ,     ,     ,     ,     ,

 DATABASE WRITTEN ON FILE  parm.xml                                                                                                                                                                                                                                                            

 EXIT THE ANSYS POST1 DATABASE PROCESSOR


 ***** ROUTINE COMPLETED *****  CP =         2.469



 PRINTOUT RESUMED BY /GOP

 *GET  _WALLDONE  FROM  ACTI  ITEM=TIME WALL  VALUE=  16.4525000    

 PARAMETER _PREPTIME =     0.000000000    

 PARAMETER _SOLVTIME =     1.000000000    

 PARAMETER _POSTTIME =     0.000000000    

 PARAMETER _TOTALTIM =     1.000000000    

 *GET  _DLBRATIO  FROM  ACTI  ITEM=SOLU DLBR  VALUE=  1.05708397    

 *GET  _COMBTIME  FROM  ACTI  ITEM=SOLU COMB  VALUE= 0.565726000E-01
 --- Total number of nodes = 25586
 --- Total number of elements = 44637
 --- Element load balance ratio = 1.05708397
 --- Time to combine distributed files = 5.65726E-02

 EXIT ANSYS WITHOUT SAVING DATABASE


 NUMBER OF WARNING MESSAGES ENCOUNTERED=          2
 NUMBER OF ERROR   MESSAGES ENCOUNTERED=          0

+--------- D I S T R I B U T E D   A N S Y S   S T A T I S T I C S ------------+

Release: 2020 R2            Build: 20.2       Update: UP20200601   Platform: WINDOWS x64 
Date Run: 02/11/2022   Time: 16:27     Process ID: 48460
Operating System: Windows 10  (Build: 19042)

Processor Model: 11th Gen Intel(R) Core(TM) i7-11700 @ 2.50GHz

Compiler: Intel(R) FORTRAN Compiler Version 19.0.0  (Build: 20190206)
          Intel(R) C/C++ Compiler Version 19.0.0  (Build: 20190206)
          Intel(R) Math Kernel Library Version 2020.0.0 Product Build 20191125

Number of machines requested            :    1
Total number of cores available         :   16
Number of physical cores available      :    8
Number of processes requested           :    2
Number of threads per process requested :    1
Total number of cores requested         :    2 (Distributed Memory Parallel)               
MPI Type: INTELMPI
MPI Version: Intel(R) MPI Library 2018 Update 3 for Windows* OS


GPU Acceleration: Not Requested

Job Name: file0
Input File: dummy.dat

  Core                Machine Name   Working Directory
 -----------------------------------------------------
     0                       STONE   D:\石甘泉文件夹\UnderfloorHeatingLayout\fig\experiment1\bedroom1\ours\ansys\_ProjectScratch\Scr99A8
     1                       STONE   D:\石甘泉文件夹\UnderfloorHeatingLayout\fig\experiment1\bedroom1\ours\ansys\_ProjectScratch\Scr99A8
 
Latency time from master to core     1 =    0.503 microseconds
 
Communication speed from master to core     1 = 10335.78 MB/sec

Total CPU time for main thread                    :        2.0 seconds
Total CPU time summed for all threads             :        2.5 seconds

Elapsed time spent obtaining a license            :        1.3 seconds
Elapsed time spent pre-processing model (/PREP7)  :        0.1 seconds
Elapsed time spent solution - preprocessing       :        0.2 seconds
Elapsed time spent computing solution             :        0.6 seconds
Elapsed time spent solution - postprocessing      :        0.1 seconds
Elapsed time spent post-processing model (/POST1) :        0.0 seconds
 
Equation solver used                              :            Sparse (symmetric)

Maximum total memory used                         :      335.0 MB
Maximum total memory allocated                    :     3136.0 MB
Total physical memory available                   :         16 GB

Total amount of I/O written to disk               :        0.0 GB
Total amount of I/O read from disk                :        0.0 GB

+------ E N D   D I S T R I B U T E D   A N S Y S   S T A T I S T I C S -------+


 *---------------------------------------------------------------------------*
 |                                                                           |
 |                       DISTRIBUTED ANSYS RUN COMPLETED                     |
 |                                                                           |
 |---------------------------------------------------------------------------|
 |                                                                           |
 | Ansys 2020 R2               Build 20.2         UP20200601     WINDOWS x64 |
 |                                                                           |
 |---------------------------------------------------------------------------|
 |                                                                           |
 | Database Requested(-db)  1024 MB    Scratch Memory Requested      1024 MB |
 | Maximum Database Used      36 MB    Maximum Scratch Memory Used    149 MB |
 |                                                                           |
 |---------------------------------------------------------------------------|
 |                                                                           |
 |        CP Time      (sec) =          2.500       Time  =  16:27:09        |
 |        Elapsed Time (sec) =          4.000       Date  =  02/11/2022      |
 |                                                                           |
 *---------------------------------------------------------------------------*
