
 ANSYS Mechanical Enterprise                       


 *------------------------------------------------------------------*
 |                                                                  |
 |   W E L C O M E   T O   T H E   A N S Y S (R)  P R O G R A M     |
 |                                                                  |
 *------------------------------------------------------------------*




 ***************************************************************
 *            ANSYS 2020 R2          LEGAL NOTICES             *
 ***************************************************************
 *                                                             *
 * Copyright 1971-2020 ANSYS, Inc.  All rights reserved.       *
 * Unauthorized use, distribution or duplication is            *
 * prohibited.                                                 *
 *                                                             *
 * Ansys is a registered trademark of ANSYS, Inc. or its       *
 * subsidiaries in the United States or other countries.       *
 * See the ANSYS, Inc. online documentation or the ANSYS, Inc. *
 * documentation CD or online help for the complete Legal      *
 * Notice.                                                     *
 *                                                             *
 ***************************************************************
 *                                                             *
 * THIS ANSYS SOFTWARE PRODUCT AND PROGRAM DOCUMENTATION       *
 * INCLUDE TRADE SECRETS AND CONFIDENTIAL AND PROPRIETARY      *
 * PRODUCTS OF ANSYS, INC., ITS SUBSIDIARIES, OR LICENSORS.    *
 * The software products and documentation are furnished by    *
 * ANSYS, Inc. or its subsidiaries under a software license    *
 * agreement that contains provisions concerning               *
 * non-disclosure, copying, length and nature of use,          *
 * compliance with exporting laws, warranties, disclaimers,    *
 * limitations of liability, and remedies, and other           *
 * provisions.  The software products and documentation may be *
 * used, disclosed, transferred, or copied only in accordance  *
 * with the terms and conditions of that software license      *
 * agreement.                                                  *
 *                                                             *
 * ANSYS, Inc. is a UL registered                              *
 * ISO 9001:2015 company.                                      *
 *                                                             *
 ***************************************************************
 *                                                             *
 * This product is subject to U.S. laws governing export and   *
 * re-export.                                                  *
 *                                                             *
 * For U.S. Government users, except as specifically granted   *
 * by the ANSYS, Inc. software license agreement, the use,     *
 * duplication, or disclosure by the United States Government  *
 * is subject to restrictions stated in the ANSYS, Inc.        *
 * software license agreement and FAR 12.212 (for non-DOD      *
 * licenses).                                                  *
 *                                                             *
 ***************************************************************

 2020 R2 
     
 Point Releases and Patches installed:   
     
 ANSYS, Inc. Products 2020 R2
 SpaceClaim 2020 R2  
 Discovery 2020 R2   
 AIM 2020 R2 
 Live (includes SpaceClaim) 2020 R2  
 ANSYS Sherlock 2020 R2  
 Autodyn 2020 R2 
 LS-DYNA 2020 R2 
 CFX (includes CFD-Post) 2020 R2 
 Chemkin 2020 R2 
 EnSight 2020 R2 
 FENSAP-ICE 2020 R2  
 Fluent (includes CFD-Post) 2020 R2  
 Forte (includes EnSight) 2020 R2
 Polyflow (includes CFD-Post) 2020 R2
 TurboGrid 2020 R2   
 ICEM CFD 2020 R2
 Aqwa 2020 R2
 SPEOS 2020 R2   
 Mechanical Products 2020 R2 
 Additive 2020 R2
 Icepak (includes CFD-Post) 2020 R2  
 ACIS Geometry Interface 2020 R2 
 AutoCAD Geometry Interface 2020 R2  
 Catia, Version 4 Geometry Interface 2020 R2 
 Catia, Version 5 Geometry Interface 2020 R2 
 Catia, Version 6 Geometry Interface 2020 R2 
 Creo Elements/Direct Modeling Geometry Interface 2020 R2
 Creo Parametric Geometry Interface 2020 R2  
 Inventor Geometry Interface 2020 R2 
 JTOpen Geometry Interface 2020 R2   
 NX Geometry Interface 2020 R2   
 Parasolid Geometry Interface  2020 R2   
 Solid Edge Geometry Interface 2020 R2   
 SOLIDWORKS Geometry Interface 2020 R2   
 ANSYS, Inc. License Manager 2020 R2 


          *****  ANSYS COMMAND LINE ARGUMENTS  *****
  BATCH MODE REQUESTED (-b)    = NOLIST
  INPUT FILE COPY MODE (-c)    = COPY
  DISTRIBUTED MEMORY PARALLEL REQUESTED
       2 PARALLEL PROCESSES REQUESTED WITH SINGLE THREAD PER PROCESS
    TOTAL OF     2 CORES REQUESTED
  INPUT FILE NAME              = D:\石甘泉文件夹\UnderfloorHeatingLayout\fig\experiment2\balcony3\ours\ansys\_ProjectScratch\ScrEBBB\dummy.dat
  OUTPUT FILE NAME             = D:\石甘泉文件夹\UnderfloorHeatingLayout\fig\experiment2\balcony3\ours\ansys\_ProjectScratch\ScrEBBB\solve.out
  START-UP FILE MODE           = NOREAD
  STOP FILE MODE               = NOREAD

 RELEASE= 2020 R2              BUILD= 20.2      UP20200601   VERSION=WINDOWS x64 
 CURRENT JOBNAME=file0  15:14:32  FEB 15, 2022 CP=      0.828


 PARAMETER _DS_PROGRESS =     999.0000000    

 /INPUT FILE= ds.dat  LINE=       0



 *** NOTE ***                            CP =       0.875   TIME= 15:14:32
 The /CONFIG,NOELDB command is not valid in a Distributed ANSYS          
 solution.  Command is ignored.                                          

 *GET  _WALLSTRT  FROM  ACTI  ITEM=TIME WALL  VALUE=  15.2422222    

 TITLE= 
 layout--Steady-State Thermal (A5)                                             


 SET PARAMETER DIMENSIONS ON  _WB_PROJECTSCRATCH_DIR
  TYPE=STRI  DIMENSIONS=      248        1        1

 PARAMETER _WB_PROJECTSCRATCH_DIR(1) = D:\石甘泉文件夹\UnderfloorHeatingLayout\fig\experiment2\balcony3\ours\ansys\_ProjectScratch\ScrEBBB\

 SET PARAMETER DIMENSIONS ON  _WB_SOLVERFILES_DIR
  TYPE=STRI  DIMENSIONS=      248        1        1

 PARAMETER _WB_SOLVERFILES_DIR(1) = D:\石甘泉文件夹\UnderfloorHeatingLayout\fig\experiment2\balcony3\ours\ansys\layout_files\dp0\SYS\MECH\

 SET PARAMETER DIMENSIONS ON  _WB_USERFILES_DIR
  TYPE=STRI  DIMENSIONS=      248        1        1

 PARAMETER _WB_USERFILES_DIR(1) = D:\石甘泉文件夹\UnderfloorHeatingLayout\fig\experiment2\balcony3\ours\ansys\layout_files\user_files\
 --- Data in consistent MKS units. See Solving Units in the help system for more

 MKS UNITS SPECIFIED FOR INTERNAL    
  LENGTH        (l)  = METER (M)
  MASS          (M)  = KILOGRAM (KG)
  TIME          (t)  = SECOND (SEC)
  TEMPERATURE   (T)  = CELSIUS (C)
  TOFFSET            = 273.0
  CHARGE        (Q)  = COULOMB
  FORCE         (f)  = NEWTON (N) (KG-M/SEC2)
  HEAT               = JOULE (N-M)

  PRESSURE           = PASCAL (NEWTON/M**2)
  ENERGY        (W)  = JOULE (N-M)
  POWER         (P)  = WATT (N-M/SEC)
  CURRENT       (i)  = AMPERE (COULOMBS/SEC)
  CAPACITANCE   (C)  = FARAD
  INDUCTANCE    (L)  = HENRY
  MAGNETIC FLUX      = WEBER
  RESISTANCE    (R)  = OHM
  ELECTRIC POTENTIAL = VOLT

 INPUT  UNITS ARE ALSO SET TO MKS 

 *** ANSYS - ENGINEERING ANALYSIS SYSTEM  RELEASE 2020 R2          20.2     ***
 DISTRIBUTED ANSYS Mechanical Enterprise                       

 20120530  VERSION=WINDOWS x64   15:14:32  FEB 15, 2022 CP=      0.875

 layout--Steady-State Thermal (A5)                                             



          ***** ANSYS ANALYSIS DEFINITION (PREP7) *****
 *********** Nodes for the whole assembly ***********
 *********** Elements for Body 1 "Surface" ***********
 *********** Elements for Body 2 "Beam (Circle)" ***********
 *********** Elements for Body 3 "Beam (Circle)" ***********
 *********** Elements for Body 4 "Beam (Circle)" ***********
 *********** Elements for Body 5 "Beam (Circle)" ***********
 *********** Elements for Body 6 "Beam (Circle)" ***********
 *********** Elements for Body 7 "Beam (Circle)" ***********
 *********** Elements for Body 8 "Beam (Circle)" ***********
 *********** Elements for Body 9 "Beam (Circle)" ***********
 *********** Elements for Body 10 "Beam (Circle)" ***********
 *********** Elements for Body 11 "Beam (Circle)" ***********
 *********** Send User Defined Coordinate System(s) ***********
 *********** Send Materials ***********
 *********** Send Sheet Properties ***********
 *********** Send Beam Properties ***********
 *********** Create "Convection" ***********
 ***************** Define Uniform Initial temperature ***************


 ***** ROUTINE COMPLETED *****  CP =         1.906


 --- Number of total nodes = 91206
 --- Number of contact elements = 148892
 --- Number of spring elements = 0
 --- Number of bearing elements = 0
 --- Number of solid elements = 165146
 --- Number of condensed parts = 0
 --- Number of total elements = 314038

 *GET  _WALLBSOL  FROM  ACTI  ITEM=TIME WALL  VALUE=  15.2425000    
 ****************************************************************************
 *************************    SOLUTION       ********************************
 ****************************************************************************

 *****  ANSYS SOLUTION ROUTINE  *****


 PERFORM A STATIC ANALYSIS
  THIS WILL BE A NEW ANALYSIS

 CONTACT INFORMATION PRINTOUT LEVEL       1

 DO NOT SAVE ANY RESTART FILES AT ALL

 DO NOT COMBINE ELEMENT MATRIX FILES (.emat) AFTER DISTRIBUTED PARALLEL SOLUTION

 DO NOT COMBINE ELEMENT SAVE DATA FILES (.esav) AFTER DISTRIBUTED PARALLEL SOLUTION
 ****************************************************
 ******************* SOLVE FOR LS 1 OF 1 ****************

 SELECT       FOR ITEM=TYPE COMPONENT=    
  IN RANGE        12 TO         12 STEP          1

     148892  ELEMENTS (OF     314038  DEFINED) SELECTED BY  ESEL  COMMAND.

 SELECT      ALL NODES HAVING ANY ELEMENT IN ELEMENT SET.

      74952 NODES (OF      91206  DEFINED) SELECTED FROM
   148892 SELECTED ELEMENTS BY NSLE COMMAND.

 GENERATE SURFACE LOAD CONV ON SURFACE DEFINED BY ALL SELECTED NODES
 VALUES=  10.0000000      5.00000000    

 NUMBER OF CONV ELEMENT FACE LOADS STORED =     148892

 ALL SELECT   FOR ITEM=NODE COMPONENT=    
  IN RANGE         1 TO      91206 STEP          1

      91206  NODES (OF      91206  DEFINED) SELECTED BY NSEL  COMMAND.

 ALL SELECT   FOR ITEM=ELEM COMPONENT=    
  IN RANGE         1 TO     314038 STEP          1

     314038  ELEMENTS (OF     314038  DEFINED) SELECTED BY  ESEL  COMMAND.

 USE AUTOMATIC TIME STEPPING THIS LOAD STEP

 USE       1 SUBSTEPS INITIALLY THIS LOAD STEP FOR ALL  DEGREES OF FREEDOM
 FOR AUTOMATIC TIME STEPPING:
   USE     10 SUBSTEPS AS A MAXIMUM
   USE      1 SUBSTEPS AS A MINIMUM

 TIME=  1.0000    

 ERASE THE CURRENT DATABASE OUTPUT CONTROL TABLE.


 WRITE ALL  ITEMS TO THE DATABASE WITH A FREQUENCY OF NONE
   FOR ALL APPLICABLE ENTITIES

 WRITE NSOL ITEMS TO THE DATABASE WITH A FREQUENCY OF ALL 
   FOR ALL APPLICABLE ENTITIES

 WRITE RSOL ITEMS TO THE DATABASE WITH A FREQUENCY OF ALL 
   FOR ALL APPLICABLE ENTITIES

 WRITE EANG ITEMS TO THE DATABASE WITH A FREQUENCY OF ALL 
   FOR ALL APPLICABLE ENTITIES

 WRITE VENG ITEMS TO THE DATABASE WITH A FREQUENCY OF ALL 
   FOR ALL APPLICABLE ENTITIES

 WRITE FFLU ITEMS TO THE DATABASE WITH A FREQUENCY OF ALL 
   FOR ALL APPLICABLE ENTITIES

 WRITE CONT ITEMS TO THE DATABASE WITH A FREQUENCY OF ALL 
   FOR ALL APPLICABLE ENTITIES

 PRINTOUT RESUMED BY /GOP

 WRITE MISC ITEMS TO THE DATABASE WITH A FREQUENCY OF ALL 
   FOR THE ENTITIES DEFINED BY COMPONENT _ELMISC 

 CONVERGENCE ON HEAT BASED ON THE NORM OF THE N-R LOAD
   WITH A TOLERANCE OF 0.1000E-02 AND A MINIMUM REFERENCE VALUE OF 0.1000E-05
   USING THE L2 NORM (CHECK THE SRSS VALUE)

 SPECIFIED CONSTRAINT TEMP FOR SELECTED NODES        14234 TO       14234 BY           1
 REAL=  35.0000000       IMAG=  0.00000000    

 SPECIFIED CONSTRAINT TEMP FOR SELECTED NODES        14235 TO       14235 BY           1
 REAL=  35.0210000       IMAG=  0.00000000    

 SPECIFIED CONSTRAINT TEMP FOR SELECTED NODES        14236 TO       14236 BY           1
 REAL=  35.0040000       IMAG=  0.00000000    

 SPECIFIED CONSTRAINT TEMP FOR SELECTED NODES        14237 TO       14237 BY           1
 REAL=  35.0090000       IMAG=  0.00000000    

 SPECIFIED CONSTRAINT TEMP FOR SELECTED NODES        14238 TO       14238 BY           1
 REAL=  35.0130000       IMAG=  0.00000000    

 SPECIFIED CONSTRAINT TEMP FOR SELECTED NODES        14239 TO       14239 BY           1
 REAL=  35.0170000       IMAG=  0.00000000    

 SPECIFIED CONSTRAINT TEMP FOR SELECTED NODES        14240 TO       14240 BY           1
 REAL=  35.0440000       IMAG=  0.00000000    

 SPECIFIED CONSTRAINT TEMP FOR SELECTED NODES        14241 TO       14241 BY           1
 REAL=  35.0260000       IMAG=  0.00000000    

 SPECIFIED CONSTRAINT TEMP FOR SELECTED NODES        14242 TO       14242 BY           1
 REAL=  35.0300000       IMAG=  0.00000000    

 SPECIFIED CONSTRAINT TEMP FOR SELECTED NODES        14243 TO       14243 BY           1
 REAL=  35.0350000       IMAG=  0.00000000    

 SPECIFIED CONSTRAINT TEMP FOR SELECTED NODES        14244 TO       14244 BY           1
 REAL=  35.0390000       IMAG=  0.00000000    

 SPECIFIED CONSTRAINT TEMP FOR SELECTED NODES        14245 TO       14245 BY           1
 REAL=  35.0980000       IMAG=  0.00000000    

 SPECIFIED CONSTRAINT TEMP FOR SELECTED NODES        14246 TO       14246 BY           1
 REAL=  35.0490000       IMAG=  0.00000000    

 SPECIFIED CONSTRAINT TEMP FOR SELECTED NODES        14247 TO       14247 BY           1
 REAL=  35.0540000       IMAG=  0.00000000    

 SPECIFIED CONSTRAINT TEMP FOR SELECTED NODES        14248 TO       14248 BY           1
 REAL=  35.0590000       IMAG=  0.00000000    

 SPECIFIED CONSTRAINT TEMP FOR SELECTED NODES        14249 TO       14249 BY           1
 REAL=  35.0640000       IMAG=  0.00000000    

 SPECIFIED CONSTRAINT TEMP FOR SELECTED NODES        14250 TO       14250 BY           1
 REAL=  35.0680000       IMAG=  0.00000000    

 SPECIFIED CONSTRAINT TEMP FOR SELECTED NODES        14251 TO       14251 BY           1
 REAL=  35.0730000       IMAG=  0.00000000    

 SPECIFIED CONSTRAINT TEMP FOR SELECTED NODES        14252 TO       14252 BY           1
 REAL=  35.0780000       IMAG=  0.00000000    

 SPECIFIED CONSTRAINT TEMP FOR SELECTED NODES        14253 TO       14253 BY           1
 REAL=  35.0830000       IMAG=  0.00000000    

 SPECIFIED CONSTRAINT TEMP FOR SELECTED NODES        14254 TO       14254 BY           1
 REAL=  35.0880000       IMAG=  0.00000000    

 SPECIFIED CONSTRAINT TEMP FOR SELECTED NODES        14255 TO       14255 BY           1
 REAL=  35.0930000       IMAG=  0.00000000    

 SPECIFIED CONSTRAINT TEMP FOR SELECTED NODES        14256 TO       14256 BY           1
 REAL=  35.1620000       IMAG=  0.00000000    

 SPECIFIED CONSTRAINT TEMP FOR SELECTED NODES        14257 TO       14257 BY           1
 REAL=  35.1030000       IMAG=  0.00000000    

 SPECIFIED CONSTRAINT TEMP FOR SELECTED NODES        14258 TO       14258 BY           1
 REAL=  35.1080000       IMAG=  0.00000000    

 SPECIFIED CONSTRAINT TEMP FOR SELECTED NODES        14259 TO       14259 BY           1
 REAL=  35.1130000       IMAG=  0.00000000    

 SPECIFIED CONSTRAINT TEMP FOR SELECTED NODES        14260 TO       14260 BY           1
 REAL=  35.1180000       IMAG=  0.00000000    

 SPECIFIED CONSTRAINT TEMP FOR SELECTED NODES        14261 TO       14261 BY           1
 REAL=  35.1230000       IMAG=  0.00000000    

 SPECIFIED CONSTRAINT TEMP FOR SELECTED NODES        14262 TO       14262 BY           1
 REAL=  35.1280000       IMAG=  0.00000000    

 SPECIFIED CONSTRAINT TEMP FOR SELECTED NODES        14263 TO       14263 BY           1
 REAL=  35.1330000       IMAG=  0.00000000    

 SPECIFIED CONSTRAINT TEMP FOR SELECTED NODES        14264 TO       14264 BY           1
 REAL=  35.1380000       IMAG=  0.00000000    

 SPECIFIED CONSTRAINT TEMP FOR SELECTED NODES        14265 TO       14265 BY           1
 REAL=  35.1430000       IMAG=  0.00000000    

 SPECIFIED CONSTRAINT TEMP FOR SELECTED NODES        14266 TO       14266 BY           1
 REAL=  35.1480000       IMAG=  0.00000000    

 SPECIFIED CONSTRAINT TEMP FOR SELECTED NODES        14267 TO       14267 BY           1
 REAL=  35.1530000       IMAG=  0.00000000    

 SPECIFIED CONSTRAINT TEMP FOR SELECTED NODES        14268 TO       14268 BY           1
 REAL=  35.1580000       IMAG=  0.00000000    

 SPECIFIED CONSTRAINT TEMP FOR SELECTED NODES        14269 TO       14269 BY           1
 REAL=  35.2200000       IMAG=  0.00000000    

 SPECIFIED CONSTRAINT TEMP FOR SELECTED NODES        14270 TO       14270 BY           1
 REAL=  35.1670000       IMAG=  0.00000000    

 SPECIFIED CONSTRAINT TEMP FOR SELECTED NODES        14271 TO       14271 BY           1
 REAL=  35.1720000       IMAG=  0.00000000    

 SPECIFIED CONSTRAINT TEMP FOR SELECTED NODES        14272 TO       14272 BY           1
 REAL=  35.1770000       IMAG=  0.00000000    

 SPECIFIED CONSTRAINT TEMP FOR SELECTED NODES        14273 TO       14273 BY           1
 REAL=  35.1820000       IMAG=  0.00000000    

 SPECIFIED CONSTRAINT TEMP FOR SELECTED NODES        14274 TO       14274 BY           1
 REAL=  35.1860000       IMAG=  0.00000000    

 SPECIFIED CONSTRAINT TEMP FOR SELECTED NODES        14275 TO       14275 BY           1
 REAL=  35.1910000       IMAG=  0.00000000    

 SPECIFIED CONSTRAINT TEMP FOR SELECTED NODES        14276 TO       14276 BY           1
 REAL=  35.1960000       IMAG=  0.00000000    

 SPECIFIED CONSTRAINT TEMP FOR SELECTED NODES        14277 TO       14277 BY           1
 REAL=  35.2010000       IMAG=  0.00000000    

 SPECIFIED CONSTRAINT TEMP FOR SELECTED NODES        14278 TO       14278 BY           1
 REAL=  35.2050000       IMAG=  0.00000000    

 SPECIFIED CONSTRAINT TEMP FOR SELECTED NODES        14279 TO       14279 BY           1
 REAL=  35.2100000       IMAG=  0.00000000    

 SPECIFIED CONSTRAINT TEMP FOR SELECTED NODES        14280 TO       14280 BY           1
 REAL=  35.2150000       IMAG=  0.00000000    

 SPECIFIED CONSTRAINT TEMP FOR SELECTED NODES        14281 TO       14281 BY           1
 REAL=  35.4620000       IMAG=  0.00000000    

 SPECIFIED CONSTRAINT TEMP FOR SELECTED NODES        14282 TO       14282 BY           1
 REAL=  35.2250000       IMAG=  0.00000000    

 SPECIFIED CONSTRAINT TEMP FOR SELECTED NODES        14283 TO       14283 BY           1
 REAL=  35.2300000       IMAG=  0.00000000    

 SPECIFIED CONSTRAINT TEMP FOR SELECTED NODES        14284 TO       14284 BY           1
 REAL=  35.2350000       IMAG=  0.00000000    

 SPECIFIED CONSTRAINT TEMP FOR SELECTED NODES        14285 TO       14285 BY           1
 REAL=  35.2400000       IMAG=  0.00000000    

 SPECIFIED CONSTRAINT TEMP FOR SELECTED NODES        14286 TO       14286 BY           1
 REAL=  35.2440000       IMAG=  0.00000000    

 SPECIFIED CONSTRAINT TEMP FOR SELECTED NODES        14287 TO       14287 BY           1
 REAL=  35.2490000       IMAG=  0.00000000    

 SPECIFIED CONSTRAINT TEMP FOR SELECTED NODES        14288 TO       14288 BY           1
 REAL=  35.2540000       IMAG=  0.00000000    

 SPECIFIED CONSTRAINT TEMP FOR SELECTED NODES        14289 TO       14289 BY           1
 REAL=  35.2590000       IMAG=  0.00000000    

 SPECIFIED CONSTRAINT TEMP FOR SELECTED NODES        14290 TO       14290 BY           1
 REAL=  35.2640000       IMAG=  0.00000000    

 SPECIFIED CONSTRAINT TEMP FOR SELECTED NODES        14291 TO       14291 BY           1
 REAL=  35.2690000       IMAG=  0.00000000    

 SPECIFIED CONSTRAINT TEMP FOR SELECTED NODES        14292 TO       14292 BY           1
 REAL=  35.2740000       IMAG=  0.00000000    

 SPECIFIED CONSTRAINT TEMP FOR SELECTED NODES        14293 TO       14293 BY           1
 REAL=  35.2790000       IMAG=  0.00000000    

 SPECIFIED CONSTRAINT TEMP FOR SELECTED NODES        14294 TO       14294 BY           1
 REAL=  35.2840000       IMAG=  0.00000000    

 SPECIFIED CONSTRAINT TEMP FOR SELECTED NODES        14295 TO       14295 BY           1
 REAL=  35.2890000       IMAG=  0.00000000    

 SPECIFIED CONSTRAINT TEMP FOR SELECTED NODES        14296 TO       14296 BY           1
 REAL=  35.2940000       IMAG=  0.00000000    

 SPECIFIED CONSTRAINT TEMP FOR SELECTED NODES        14297 TO       14297 BY           1
 REAL=  35.2990000       IMAG=  0.00000000    

 SPECIFIED CONSTRAINT TEMP FOR SELECTED NODES        14298 TO       14298 BY           1
 REAL=  35.3040000       IMAG=  0.00000000    

 SPECIFIED CONSTRAINT TEMP FOR SELECTED NODES        14299 TO       14299 BY           1
 REAL=  35.3090000       IMAG=  0.00000000    

 SPECIFIED CONSTRAINT TEMP FOR SELECTED NODES        14300 TO       14300 BY           1
 REAL=  35.3140000       IMAG=  0.00000000    

 SPECIFIED CONSTRAINT TEMP FOR SELECTED NODES        14301 TO       14301 BY           1
 REAL=  35.3190000       IMAG=  0.00000000    

 SPECIFIED CONSTRAINT TEMP FOR SELECTED NODES        14302 TO       14302 BY           1
 REAL=  35.3240000       IMAG=  0.00000000    

 SPECIFIED CONSTRAINT TEMP FOR SELECTED NODES        14303 TO       14303 BY           1
 REAL=  35.3290000       IMAG=  0.00000000    

 SPECIFIED CONSTRAINT TEMP FOR SELECTED NODES        14304 TO       14304 BY           1
 REAL=  35.3340000       IMAG=  0.00000000    

 SPECIFIED CONSTRAINT TEMP FOR SELECTED NODES        14305 TO       14305 BY           1
 REAL=  35.3390000       IMAG=  0.00000000    

 SPECIFIED CONSTRAINT TEMP FOR SELECTED NODES        14306 TO       14306 BY           1
 REAL=  35.3440000       IMAG=  0.00000000    

 SPECIFIED CONSTRAINT TEMP FOR SELECTED NODES        14307 TO       14307 BY           1
 REAL=  35.3480000       IMAG=  0.00000000    

 SPECIFIED CONSTRAINT TEMP FOR SELECTED NODES        14308 TO       14308 BY           1
 REAL=  35.3530000       IMAG=  0.00000000    

 SPECIFIED CONSTRAINT TEMP FOR SELECTED NODES        14309 TO       14309 BY           1
 REAL=  35.3580000       IMAG=  0.00000000    

 SPECIFIED CONSTRAINT TEMP FOR SELECTED NODES        14310 TO       14310 BY           1
 REAL=  35.3630000       IMAG=  0.00000000    

 SPECIFIED CONSTRAINT TEMP FOR SELECTED NODES        14311 TO       14311 BY           1
 REAL=  35.3680000       IMAG=  0.00000000    

 SPECIFIED CONSTRAINT TEMP FOR SELECTED NODES        14312 TO       14312 BY           1
 REAL=  35.3730000       IMAG=  0.00000000    

 SPECIFIED CONSTRAINT TEMP FOR SELECTED NODES        14313 TO       14313 BY           1
 REAL=  35.3780000       IMAG=  0.00000000    

 SPECIFIED CONSTRAINT TEMP FOR SELECTED NODES        14314 TO       14314 BY           1
 REAL=  35.3830000       IMAG=  0.00000000    

 SPECIFIED CONSTRAINT TEMP FOR SELECTED NODES        14315 TO       14315 BY           1
 REAL=  35.3880000       IMAG=  0.00000000    

 SPECIFIED CONSTRAINT TEMP FOR SELECTED NODES        14316 TO       14316 BY           1
 REAL=  35.3930000       IMAG=  0.00000000    

 SPECIFIED CONSTRAINT TEMP FOR SELECTED NODES        14317 TO       14317 BY           1
 REAL=  35.3980000       IMAG=  0.00000000    

 SPECIFIED CONSTRAINT TEMP FOR SELECTED NODES        14318 TO       14318 BY           1
 REAL=  35.4030000       IMAG=  0.00000000    

 SPECIFIED CONSTRAINT TEMP FOR SELECTED NODES        14319 TO       14319 BY           1
 REAL=  35.4080000       IMAG=  0.00000000    

 SPECIFIED CONSTRAINT TEMP FOR SELECTED NODES        14320 TO       14320 BY           1
 REAL=  35.4130000       IMAG=  0.00000000    

 SPECIFIED CONSTRAINT TEMP FOR SELECTED NODES        14321 TO       14321 BY           1
 REAL=  35.4180000       IMAG=  0.00000000    

 SPECIFIED CONSTRAINT TEMP FOR SELECTED NODES        14322 TO       14322 BY           1
 REAL=  35.4230000       IMAG=  0.00000000    

 SPECIFIED CONSTRAINT TEMP FOR SELECTED NODES        14323 TO       14323 BY           1
 REAL=  35.4280000       IMAG=  0.00000000    

 SPECIFIED CONSTRAINT TEMP FOR SELECTED NODES        14324 TO       14324 BY           1
 REAL=  35.4330000       IMAG=  0.00000000    

 SPECIFIED CONSTRAINT TEMP FOR SELECTED NODES        14325 TO       14325 BY           1
 REAL=  35.4380000       IMAG=  0.00000000    

 SPECIFIED CONSTRAINT TEMP FOR SELECTED NODES        14326 TO       14326 BY           1
 REAL=  35.4430000       IMAG=  0.00000000    

 SPECIFIED CONSTRAINT TEMP FOR SELECTED NODES        14327 TO       14327 BY           1
 REAL=  35.4480000       IMAG=  0.00000000    

 SPECIFIED CONSTRAINT TEMP FOR SELECTED NODES        14328 TO       14328 BY           1
 REAL=  35.4520000       IMAG=  0.00000000    

 SPECIFIED CONSTRAINT TEMP FOR SELECTED NODES        14329 TO       14329 BY           1
 REAL=  35.4570000       IMAG=  0.00000000    

 SPECIFIED CONSTRAINT TEMP FOR SELECTED NODES        14330 TO       14330 BY           1
 REAL=  35.5210000       IMAG=  0.00000000    

 SPECIFIED CONSTRAINT TEMP FOR SELECTED NODES        14331 TO       14331 BY           1
 REAL=  35.4670000       IMAG=  0.00000000    

 SPECIFIED CONSTRAINT TEMP FOR SELECTED NODES        14332 TO       14332 BY           1
 REAL=  35.4720000       IMAG=  0.00000000    

 SPECIFIED CONSTRAINT TEMP FOR SELECTED NODES        14333 TO       14333 BY           1
 REAL=  35.4770000       IMAG=  0.00000000    

 SPECIFIED CONSTRAINT TEMP FOR SELECTED NODES        14334 TO       14334 BY           1
 REAL=  35.4820000       IMAG=  0.00000000    

 SPECIFIED CONSTRAINT TEMP FOR SELECTED NODES        14335 TO       14335 BY           1
 REAL=  35.4870000       IMAG=  0.00000000    

 SPECIFIED CONSTRAINT TEMP FOR SELECTED NODES        14336 TO       14336 BY           1
 REAL=  35.4920000       IMAG=  0.00000000    

 SPECIFIED CONSTRAINT TEMP FOR SELECTED NODES        14337 TO       14337 BY           1
 REAL=  35.4970000       IMAG=  0.00000000    

 SPECIFIED CONSTRAINT TEMP FOR SELECTED NODES        14338 TO       14338 BY           1
 REAL=  35.5020000       IMAG=  0.00000000    

 SPECIFIED CONSTRAINT TEMP FOR SELECTED NODES        14339 TO       14339 BY           1
 REAL=  35.5060000       IMAG=  0.00000000    

 SPECIFIED CONSTRAINT TEMP FOR SELECTED NODES        14340 TO       14340 BY           1
 REAL=  35.5110000       IMAG=  0.00000000    

 SPECIFIED CONSTRAINT TEMP FOR SELECTED NODES        14341 TO       14341 BY           1
 REAL=  35.5160000       IMAG=  0.00000000    

 SPECIFIED CONSTRAINT TEMP FOR SELECTED NODES        14342 TO       14342 BY           1
 REAL=  35.5640000       IMAG=  0.00000000    

 SPECIFIED CONSTRAINT TEMP FOR SELECTED NODES        14343 TO       14343 BY           1
 REAL=  35.5260000       IMAG=  0.00000000    

 SPECIFIED CONSTRAINT TEMP FOR SELECTED NODES        14344 TO       14344 BY           1
 REAL=  35.5310000       IMAG=  0.00000000    

 SPECIFIED CONSTRAINT TEMP FOR SELECTED NODES        14345 TO       14345 BY           1
 REAL=  35.5350000       IMAG=  0.00000000    

 SPECIFIED CONSTRAINT TEMP FOR SELECTED NODES        14346 TO       14346 BY           1
 REAL=  35.5400000       IMAG=  0.00000000    

 SPECIFIED CONSTRAINT TEMP FOR SELECTED NODES        14347 TO       14347 BY           1
 REAL=  35.5450000       IMAG=  0.00000000    

 SPECIFIED CONSTRAINT TEMP FOR SELECTED NODES        14348 TO       14348 BY           1
 REAL=  35.5500000       IMAG=  0.00000000    

 SPECIFIED CONSTRAINT TEMP FOR SELECTED NODES        14349 TO       14349 BY           1
 REAL=  35.5540000       IMAG=  0.00000000    

 SPECIFIED CONSTRAINT TEMP FOR SELECTED NODES        14350 TO       14350 BY           1
 REAL=  35.5590000       IMAG=  0.00000000    

 SPECIFIED CONSTRAINT TEMP FOR SELECTED NODES        14351 TO       14351 BY           1
 REAL=  35.8360000       IMAG=  0.00000000    

 SPECIFIED CONSTRAINT TEMP FOR SELECTED NODES        14352 TO       14352 BY           1
 REAL=  35.5690000       IMAG=  0.00000000    

 SPECIFIED CONSTRAINT TEMP FOR SELECTED NODES        14353 TO       14353 BY           1
 REAL=  35.5740000       IMAG=  0.00000000    

 SPECIFIED CONSTRAINT TEMP FOR SELECTED NODES        14354 TO       14354 BY           1
 REAL=  35.5790000       IMAG=  0.00000000    

 SPECIFIED CONSTRAINT TEMP FOR SELECTED NODES        14355 TO       14355 BY           1
 REAL=  35.5840000       IMAG=  0.00000000    

 SPECIFIED CONSTRAINT TEMP FOR SELECTED NODES        14356 TO       14356 BY           1
 REAL=  35.5890000       IMAG=  0.00000000    

 SPECIFIED CONSTRAINT TEMP FOR SELECTED NODES        14357 TO       14357 BY           1
 REAL=  35.5940000       IMAG=  0.00000000    

 SPECIFIED CONSTRAINT TEMP FOR SELECTED NODES        14358 TO       14358 BY           1
 REAL=  35.5990000       IMAG=  0.00000000    

 SPECIFIED CONSTRAINT TEMP FOR SELECTED NODES        14359 TO       14359 BY           1
 REAL=  35.6040000       IMAG=  0.00000000    

 SPECIFIED CONSTRAINT TEMP FOR SELECTED NODES        14360 TO       14360 BY           1
 REAL=  35.6090000       IMAG=  0.00000000    

 SPECIFIED CONSTRAINT TEMP FOR SELECTED NODES        14361 TO       14361 BY           1
 REAL=  35.6140000       IMAG=  0.00000000    

 SPECIFIED CONSTRAINT TEMP FOR SELECTED NODES        14362 TO       14362 BY           1
 REAL=  35.6180000       IMAG=  0.00000000    

 SPECIFIED CONSTRAINT TEMP FOR SELECTED NODES        14363 TO       14363 BY           1
 REAL=  35.6230000       IMAG=  0.00000000    

 SPECIFIED CONSTRAINT TEMP FOR SELECTED NODES        14364 TO       14364 BY           1
 REAL=  35.6280000       IMAG=  0.00000000    

 SPECIFIED CONSTRAINT TEMP FOR SELECTED NODES        14365 TO       14365 BY           1
 REAL=  35.6330000       IMAG=  0.00000000    

 SPECIFIED CONSTRAINT TEMP FOR SELECTED NODES        14366 TO       14366 BY           1
 REAL=  35.6380000       IMAG=  0.00000000    

 SPECIFIED CONSTRAINT TEMP FOR SELECTED NODES        14367 TO       14367 BY           1
 REAL=  35.6430000       IMAG=  0.00000000    

 SPECIFIED CONSTRAINT TEMP FOR SELECTED NODES        14368 TO       14368 BY           1
 REAL=  35.6480000       IMAG=  0.00000000    

 SPECIFIED CONSTRAINT TEMP FOR SELECTED NODES        14369 TO       14369 BY           1
 REAL=  35.6530000       IMAG=  0.00000000    

 SPECIFIED CONSTRAINT TEMP FOR SELECTED NODES        14370 TO       14370 BY           1
 REAL=  35.6580000       IMAG=  0.00000000    

 SPECIFIED CONSTRAINT TEMP FOR SELECTED NODES        14371 TO       14371 BY           1
 REAL=  35.6630000       IMAG=  0.00000000    

 SPECIFIED CONSTRAINT TEMP FOR SELECTED NODES        14372 TO       14372 BY           1
 REAL=  35.6680000       IMAG=  0.00000000    

 SPECIFIED CONSTRAINT TEMP FOR SELECTED NODES        14373 TO       14373 BY           1
 REAL=  35.6730000       IMAG=  0.00000000    

 SPECIFIED CONSTRAINT TEMP FOR SELECTED NODES        14374 TO       14374 BY           1
 REAL=  35.6780000       IMAG=  0.00000000    

 SPECIFIED CONSTRAINT TEMP FOR SELECTED NODES        14375 TO       14375 BY           1
 REAL=  35.6830000       IMAG=  0.00000000    

 SPECIFIED CONSTRAINT TEMP FOR SELECTED NODES        14376 TO       14376 BY           1
 REAL=  35.6880000       IMAG=  0.00000000    

 SPECIFIED CONSTRAINT TEMP FOR SELECTED NODES        14377 TO       14377 BY           1
 REAL=  35.6930000       IMAG=  0.00000000    

 SPECIFIED CONSTRAINT TEMP FOR SELECTED NODES        14378 TO       14378 BY           1
 REAL=  35.6980000       IMAG=  0.00000000    

 SPECIFIED CONSTRAINT TEMP FOR SELECTED NODES        14379 TO       14379 BY           1
 REAL=  35.7030000       IMAG=  0.00000000    

 SPECIFIED CONSTRAINT TEMP FOR SELECTED NODES        14380 TO       14380 BY           1
 REAL=  35.7080000       IMAG=  0.00000000    

 SPECIFIED CONSTRAINT TEMP FOR SELECTED NODES        14381 TO       14381 BY           1
 REAL=  35.7130000       IMAG=  0.00000000    

 SPECIFIED CONSTRAINT TEMP FOR SELECTED NODES        14382 TO       14382 BY           1
 REAL=  35.7180000       IMAG=  0.00000000    

 SPECIFIED CONSTRAINT TEMP FOR SELECTED NODES        14383 TO       14383 BY           1
 REAL=  35.7220000       IMAG=  0.00000000    

 SPECIFIED CONSTRAINT TEMP FOR SELECTED NODES        14384 TO       14384 BY           1
 REAL=  35.7270000       IMAG=  0.00000000    

 SPECIFIED CONSTRAINT TEMP FOR SELECTED NODES        14385 TO       14385 BY           1
 REAL=  35.7320000       IMAG=  0.00000000    

 SPECIFIED CONSTRAINT TEMP FOR SELECTED NODES        14386 TO       14386 BY           1
 REAL=  35.7370000       IMAG=  0.00000000    

 SPECIFIED CONSTRAINT TEMP FOR SELECTED NODES        14387 TO       14387 BY           1
 REAL=  35.7420000       IMAG=  0.00000000    

 SPECIFIED CONSTRAINT TEMP FOR SELECTED NODES        14388 TO       14388 BY           1
 REAL=  35.7470000       IMAG=  0.00000000    

 SPECIFIED CONSTRAINT TEMP FOR SELECTED NODES        14389 TO       14389 BY           1
 REAL=  35.7520000       IMAG=  0.00000000    

 SPECIFIED CONSTRAINT TEMP FOR SELECTED NODES        14390 TO       14390 BY           1
 REAL=  35.7570000       IMAG=  0.00000000    

 SPECIFIED CONSTRAINT TEMP FOR SELECTED NODES        14391 TO       14391 BY           1
 REAL=  35.7620000       IMAG=  0.00000000    

 SPECIFIED CONSTRAINT TEMP FOR SELECTED NODES        14392 TO       14392 BY           1
 REAL=  35.7670000       IMAG=  0.00000000    

 SPECIFIED CONSTRAINT TEMP FOR SELECTED NODES        14393 TO       14393 BY           1
 REAL=  35.7720000       IMAG=  0.00000000    

 SPECIFIED CONSTRAINT TEMP FOR SELECTED NODES        14394 TO       14394 BY           1
 REAL=  35.7770000       IMAG=  0.00000000    

 SPECIFIED CONSTRAINT TEMP FOR SELECTED NODES        14395 TO       14395 BY           1
 REAL=  35.7820000       IMAG=  0.00000000    

 SPECIFIED CONSTRAINT TEMP FOR SELECTED NODES        14396 TO       14396 BY           1
 REAL=  35.7870000       IMAG=  0.00000000    

 SPECIFIED CONSTRAINT TEMP FOR SELECTED NODES        14397 TO       14397 BY           1
 REAL=  35.7920000       IMAG=  0.00000000    

 SPECIFIED CONSTRAINT TEMP FOR SELECTED NODES        14398 TO       14398 BY           1
 REAL=  35.7970000       IMAG=  0.00000000    

 SPECIFIED CONSTRAINT TEMP FOR SELECTED NODES        14399 TO       14399 BY           1
 REAL=  35.8020000       IMAG=  0.00000000    

 SPECIFIED CONSTRAINT TEMP FOR SELECTED NODES        14400 TO       14400 BY           1
 REAL=  35.8070000       IMAG=  0.00000000    

 SPECIFIED CONSTRAINT TEMP FOR SELECTED NODES        14401 TO       14401 BY           1
 REAL=  35.8120000       IMAG=  0.00000000    

 SPECIFIED CONSTRAINT TEMP FOR SELECTED NODES        14402 TO       14402 BY           1
 REAL=  35.8170000       IMAG=  0.00000000    

 SPECIFIED CONSTRAINT TEMP FOR SELECTED NODES        14403 TO       14403 BY           1
 REAL=  35.8220000       IMAG=  0.00000000    

 SPECIFIED CONSTRAINT TEMP FOR SELECTED NODES        14404 TO       14404 BY           1
 REAL=  35.8260000       IMAG=  0.00000000    

 SPECIFIED CONSTRAINT TEMP FOR SELECTED NODES        14405 TO       14405 BY           1
 REAL=  35.8310000       IMAG=  0.00000000    

 SPECIFIED CONSTRAINT TEMP FOR SELECTED NODES        14406 TO       14406 BY           1
 REAL=  35.9060000       IMAG=  0.00000000    

 SPECIFIED CONSTRAINT TEMP FOR SELECTED NODES        14407 TO       14407 BY           1
 REAL=  35.8410000       IMAG=  0.00000000    

 SPECIFIED CONSTRAINT TEMP FOR SELECTED NODES        14408 TO       14408 BY           1
 REAL=  35.8460000       IMAG=  0.00000000    

 SPECIFIED CONSTRAINT TEMP FOR SELECTED NODES        14409 TO       14409 BY           1
 REAL=  35.8510000       IMAG=  0.00000000    

 SPECIFIED CONSTRAINT TEMP FOR SELECTED NODES        14410 TO       14410 BY           1
 REAL=  35.8560000       IMAG=  0.00000000    

 SPECIFIED CONSTRAINT TEMP FOR SELECTED NODES        14411 TO       14411 BY           1
 REAL=  35.8610000       IMAG=  0.00000000    

 SPECIFIED CONSTRAINT TEMP FOR SELECTED NODES        14412 TO       14412 BY           1
 REAL=  35.8660000       IMAG=  0.00000000    

 SPECIFIED CONSTRAINT TEMP FOR SELECTED NODES        14413 TO       14413 BY           1
 REAL=  35.8710000       IMAG=  0.00000000    

 SPECIFIED CONSTRAINT TEMP FOR SELECTED NODES        14414 TO       14414 BY           1
 REAL=  35.8760000       IMAG=  0.00000000    

 SPECIFIED CONSTRAINT TEMP FOR SELECTED NODES        14415 TO       14415 BY           1
 REAL=  35.8810000       IMAG=  0.00000000    

 SPECIFIED CONSTRAINT TEMP FOR SELECTED NODES        14416 TO       14416 BY           1
 REAL=  35.8860000       IMAG=  0.00000000    

 SPECIFIED CONSTRAINT TEMP FOR SELECTED NODES        14417 TO       14417 BY           1
 REAL=  35.8910000       IMAG=  0.00000000    

 SPECIFIED CONSTRAINT TEMP FOR SELECTED NODES        14418 TO       14418 BY           1
 REAL=  35.8960000       IMAG=  0.00000000    

 SPECIFIED CONSTRAINT TEMP FOR SELECTED NODES        14419 TO       14419 BY           1
 REAL=  35.9010000       IMAG=  0.00000000    

 SPECIFIED CONSTRAINT TEMP FOR SELECTED NODES        14420 TO       14420 BY           1
 REAL=  36.5280000       IMAG=  0.00000000    

 SPECIFIED CONSTRAINT TEMP FOR SELECTED NODES        14421 TO       14421 BY           1
 REAL=  35.9110000       IMAG=  0.00000000    

 SPECIFIED CONSTRAINT TEMP FOR SELECTED NODES        14422 TO       14422 BY           1
 REAL=  35.9160000       IMAG=  0.00000000    

 SPECIFIED CONSTRAINT TEMP FOR SELECTED NODES        14423 TO       14423 BY           1
 REAL=  35.9210000       IMAG=  0.00000000    

 SPECIFIED CONSTRAINT TEMP FOR SELECTED NODES        14424 TO       14424 BY           1
 REAL=  35.9260000       IMAG=  0.00000000    

 SPECIFIED CONSTRAINT TEMP FOR SELECTED NODES        14425 TO       14425 BY           1
 REAL=  35.9310000       IMAG=  0.00000000    

 SPECIFIED CONSTRAINT TEMP FOR SELECTED NODES        14426 TO       14426 BY           1
 REAL=  35.9360000       IMAG=  0.00000000    

 SPECIFIED CONSTRAINT TEMP FOR SELECTED NODES        14427 TO       14427 BY           1
 REAL=  35.9410000       IMAG=  0.00000000    

 SPECIFIED CONSTRAINT TEMP FOR SELECTED NODES        14428 TO       14428 BY           1
 REAL=  35.9460000       IMAG=  0.00000000    

 SPECIFIED CONSTRAINT TEMP FOR SELECTED NODES        14429 TO       14429 BY           1
 REAL=  35.9510000       IMAG=  0.00000000    

 SPECIFIED CONSTRAINT TEMP FOR SELECTED NODES        14430 TO       14430 BY           1
 REAL=  35.9560000       IMAG=  0.00000000    

 SPECIFIED CONSTRAINT TEMP FOR SELECTED NODES        14431 TO       14431 BY           1
 REAL=  35.9610000       IMAG=  0.00000000    

 SPECIFIED CONSTRAINT TEMP FOR SELECTED NODES        14432 TO       14432 BY           1
 REAL=  35.9650000       IMAG=  0.00000000    

 SPECIFIED CONSTRAINT TEMP FOR SELECTED NODES        14433 TO       14433 BY           1
 REAL=  35.9700000       IMAG=  0.00000000    

 SPECIFIED CONSTRAINT TEMP FOR SELECTED NODES        14434 TO       14434 BY           1
 REAL=  35.9750000       IMAG=  0.00000000    

 SPECIFIED CONSTRAINT TEMP FOR SELECTED NODES        14435 TO       14435 BY           1
 REAL=  35.9800000       IMAG=  0.00000000    

 SPECIFIED CONSTRAINT TEMP FOR SELECTED NODES        14436 TO       14436 BY           1
 REAL=  35.9850000       IMAG=  0.00000000    

 SPECIFIED CONSTRAINT TEMP FOR SELECTED NODES        14437 TO       14437 BY           1
 REAL=  35.9900000       IMAG=  0.00000000    

 SPECIFIED CONSTRAINT TEMP FOR SELECTED NODES        14438 TO       14438 BY           1
 REAL=  35.9950000       IMAG=  0.00000000    

 SPECIFIED CONSTRAINT TEMP FOR SELECTED NODES        14439 TO       14439 BY           1
 REAL=  36.0000000       IMAG=  0.00000000    

 SPECIFIED CONSTRAINT TEMP FOR SELECTED NODES        14440 TO       14440 BY           1
 REAL=  36.0050000       IMAG=  0.00000000    

 SPECIFIED CONSTRAINT TEMP FOR SELECTED NODES        14441 TO       14441 BY           1
 REAL=  36.0100000       IMAG=  0.00000000    

 SPECIFIED CONSTRAINT TEMP FOR SELECTED NODES        14442 TO       14442 BY           1
 REAL=  36.0150000       IMAG=  0.00000000    

 SPECIFIED CONSTRAINT TEMP FOR SELECTED NODES        14443 TO       14443 BY           1
 REAL=  36.0200000       IMAG=  0.00000000    

 SPECIFIED CONSTRAINT TEMP FOR SELECTED NODES        14444 TO       14444 BY           1
 REAL=  36.0250000       IMAG=  0.00000000    

 SPECIFIED CONSTRAINT TEMP FOR SELECTED NODES        14445 TO       14445 BY           1
 REAL=  36.0300000       IMAG=  0.00000000    

 SPECIFIED CONSTRAINT TEMP FOR SELECTED NODES        14446 TO       14446 BY           1
 REAL=  36.0350000       IMAG=  0.00000000    

 SPECIFIED CONSTRAINT TEMP FOR SELECTED NODES        14447 TO       14447 BY           1
 REAL=  36.0400000       IMAG=  0.00000000    

 SPECIFIED CONSTRAINT TEMP FOR SELECTED NODES        14448 TO       14448 BY           1
 REAL=  36.0450000       IMAG=  0.00000000    

 SPECIFIED CONSTRAINT TEMP FOR SELECTED NODES        14449 TO       14449 BY           1
 REAL=  36.0500000       IMAG=  0.00000000    

 SPECIFIED CONSTRAINT TEMP FOR SELECTED NODES        14450 TO       14450 BY           1
 REAL=  36.0550000       IMAG=  0.00000000    

 SPECIFIED CONSTRAINT TEMP FOR SELECTED NODES        14451 TO       14451 BY           1
 REAL=  36.0600000       IMAG=  0.00000000    

 SPECIFIED CONSTRAINT TEMP FOR SELECTED NODES        14452 TO       14452 BY           1
 REAL=  36.0650000       IMAG=  0.00000000    

 SPECIFIED CONSTRAINT TEMP FOR SELECTED NODES        14453 TO       14453 BY           1
 REAL=  36.0700000       IMAG=  0.00000000    

 SPECIFIED CONSTRAINT TEMP FOR SELECTED NODES        14454 TO       14454 BY           1
 REAL=  36.0750000       IMAG=  0.00000000    

 SPECIFIED CONSTRAINT TEMP FOR SELECTED NODES        14455 TO       14455 BY           1
 REAL=  36.0800000       IMAG=  0.00000000    

 SPECIFIED CONSTRAINT TEMP FOR SELECTED NODES        14456 TO       14456 BY           1
 REAL=  36.0850000       IMAG=  0.00000000    

 SPECIFIED CONSTRAINT TEMP FOR SELECTED NODES        14457 TO       14457 BY           1
 REAL=  36.0900000       IMAG=  0.00000000    

 SPECIFIED CONSTRAINT TEMP FOR SELECTED NODES        14458 TO       14458 BY           1
 REAL=  36.0950000       IMAG=  0.00000000    

 SPECIFIED CONSTRAINT TEMP FOR SELECTED NODES        14459 TO       14459 BY           1
 REAL=  36.1000000       IMAG=  0.00000000    

 SPECIFIED CONSTRAINT TEMP FOR SELECTED NODES        14460 TO       14460 BY           1
 REAL=  36.1050000       IMAG=  0.00000000    

 SPECIFIED CONSTRAINT TEMP FOR SELECTED NODES        14461 TO       14461 BY           1
 REAL=  36.1100000       IMAG=  0.00000000    

 SPECIFIED CONSTRAINT TEMP FOR SELECTED NODES        14462 TO       14462 BY           1
 REAL=  36.1150000       IMAG=  0.00000000    

 SPECIFIED CONSTRAINT TEMP FOR SELECTED NODES        14463 TO       14463 BY           1
 REAL=  36.1200000       IMAG=  0.00000000    

 SPECIFIED CONSTRAINT TEMP FOR SELECTED NODES        14464 TO       14464 BY           1
 REAL=  36.1250000       IMAG=  0.00000000    

 SPECIFIED CONSTRAINT TEMP FOR SELECTED NODES        14465 TO       14465 BY           1
 REAL=  36.1300000       IMAG=  0.00000000    

 SPECIFIED CONSTRAINT TEMP FOR SELECTED NODES        14466 TO       14466 BY           1
 REAL=  36.1350000       IMAG=  0.00000000    

 SPECIFIED CONSTRAINT TEMP FOR SELECTED NODES        14467 TO       14467 BY           1
 REAL=  36.1400000       IMAG=  0.00000000    

 SPECIFIED CONSTRAINT TEMP FOR SELECTED NODES        14468 TO       14468 BY           1
 REAL=  36.1450000       IMAG=  0.00000000    

 SPECIFIED CONSTRAINT TEMP FOR SELECTED NODES        14469 TO       14469 BY           1
 REAL=  36.1500000       IMAG=  0.00000000    

 SPECIFIED CONSTRAINT TEMP FOR SELECTED NODES        14470 TO       14470 BY           1
 REAL=  36.1550000       IMAG=  0.00000000    

 SPECIFIED CONSTRAINT TEMP FOR SELECTED NODES        14471 TO       14471 BY           1
 REAL=  36.1600000       IMAG=  0.00000000    

 SPECIFIED CONSTRAINT TEMP FOR SELECTED NODES        14472 TO       14472 BY           1
 REAL=  36.1650000       IMAG=  0.00000000    

 SPECIFIED CONSTRAINT TEMP FOR SELECTED NODES        14473 TO       14473 BY           1
 REAL=  36.1700000       IMAG=  0.00000000    

 SPECIFIED CONSTRAINT TEMP FOR SELECTED NODES        14474 TO       14474 BY           1
 REAL=  36.1750000       IMAG=  0.00000000    

 SPECIFIED CONSTRAINT TEMP FOR SELECTED NODES        14475 TO       14475 BY           1
 REAL=  36.1800000       IMAG=  0.00000000    

 SPECIFIED CONSTRAINT TEMP FOR SELECTED NODES        14476 TO       14476 BY           1
 REAL=  36.1850000       IMAG=  0.00000000    

 SPECIFIED CONSTRAINT TEMP FOR SELECTED NODES        14477 TO       14477 BY           1
 REAL=  36.1900000       IMAG=  0.00000000    

 SPECIFIED CONSTRAINT TEMP FOR SELECTED NODES        14478 TO       14478 BY           1
 REAL=  36.1950000       IMAG=  0.00000000    

 SPECIFIED CONSTRAINT TEMP FOR SELECTED NODES        14479 TO       14479 BY           1
 REAL=  36.2000000       IMAG=  0.00000000    

 SPECIFIED CONSTRAINT TEMP FOR SELECTED NODES        14480 TO       14480 BY           1
 REAL=  36.2050000       IMAG=  0.00000000    

 SPECIFIED CONSTRAINT TEMP FOR SELECTED NODES        14481 TO       14481 BY           1
 REAL=  36.2100000       IMAG=  0.00000000    

 SPECIFIED CONSTRAINT TEMP FOR SELECTED NODES        14482 TO       14482 BY           1
 REAL=  36.2140000       IMAG=  0.00000000    

 SPECIFIED CONSTRAINT TEMP FOR SELECTED NODES        14483 TO       14483 BY           1
 REAL=  36.2190000       IMAG=  0.00000000    

 SPECIFIED CONSTRAINT TEMP FOR SELECTED NODES        14484 TO       14484 BY           1
 REAL=  36.2240000       IMAG=  0.00000000    

 SPECIFIED CONSTRAINT TEMP FOR SELECTED NODES        14485 TO       14485 BY           1
 REAL=  36.2290000       IMAG=  0.00000000    

 SPECIFIED CONSTRAINT TEMP FOR SELECTED NODES        14486 TO       14486 BY           1
 REAL=  36.2340000       IMAG=  0.00000000    

 SPECIFIED CONSTRAINT TEMP FOR SELECTED NODES        14487 TO       14487 BY           1
 REAL=  36.2390000       IMAG=  0.00000000    

 SPECIFIED CONSTRAINT TEMP FOR SELECTED NODES        14488 TO       14488 BY           1
 REAL=  36.2440000       IMAG=  0.00000000    

 SPECIFIED CONSTRAINT TEMP FOR SELECTED NODES        14489 TO       14489 BY           1
 REAL=  36.2490000       IMAG=  0.00000000    

 SPECIFIED CONSTRAINT TEMP FOR SELECTED NODES        14490 TO       14490 BY           1
 REAL=  36.2540000       IMAG=  0.00000000    

 SPECIFIED CONSTRAINT TEMP FOR SELECTED NODES        14491 TO       14491 BY           1
 REAL=  36.2590000       IMAG=  0.00000000    

 SPECIFIED CONSTRAINT TEMP FOR SELECTED NODES        14492 TO       14492 BY           1
 REAL=  36.2640000       IMAG=  0.00000000    

 SPECIFIED CONSTRAINT TEMP FOR SELECTED NODES        14493 TO       14493 BY           1
 REAL=  36.2690000       IMAG=  0.00000000    

 SPECIFIED CONSTRAINT TEMP FOR SELECTED NODES        14494 TO       14494 BY           1
 REAL=  36.2740000       IMAG=  0.00000000    

 SPECIFIED CONSTRAINT TEMP FOR SELECTED NODES        14495 TO       14495 BY           1
 REAL=  36.2790000       IMAG=  0.00000000    

 SPECIFIED CONSTRAINT TEMP FOR SELECTED NODES        14496 TO       14496 BY           1
 REAL=  36.2840000       IMAG=  0.00000000    

 SPECIFIED CONSTRAINT TEMP FOR SELECTED NODES        14497 TO       14497 BY           1
 REAL=  36.2890000       IMAG=  0.00000000    

 SPECIFIED CONSTRAINT TEMP FOR SELECTED NODES        14498 TO       14498 BY           1
 REAL=  36.2940000       IMAG=  0.00000000    

 SPECIFIED CONSTRAINT TEMP FOR SELECTED NODES        14499 TO       14499 BY           1
 REAL=  36.2990000       IMAG=  0.00000000    

 SPECIFIED CONSTRAINT TEMP FOR SELECTED NODES        14500 TO       14500 BY           1
 REAL=  36.3040000       IMAG=  0.00000000    

 SPECIFIED CONSTRAINT TEMP FOR SELECTED NODES        14501 TO       14501 BY           1
 REAL=  36.3090000       IMAG=  0.00000000    

 SPECIFIED CONSTRAINT TEMP FOR SELECTED NODES        14502 TO       14502 BY           1
 REAL=  36.3140000       IMAG=  0.00000000    

 SPECIFIED CONSTRAINT TEMP FOR SELECTED NODES        14503 TO       14503 BY           1
 REAL=  36.3190000       IMAG=  0.00000000    

 SPECIFIED CONSTRAINT TEMP FOR SELECTED NODES        14504 TO       14504 BY           1
 REAL=  36.3240000       IMAG=  0.00000000    

 SPECIFIED CONSTRAINT TEMP FOR SELECTED NODES        14505 TO       14505 BY           1
 REAL=  36.3290000       IMAG=  0.00000000    

 SPECIFIED CONSTRAINT TEMP FOR SELECTED NODES        14506 TO       14506 BY           1
 REAL=  36.3340000       IMAG=  0.00000000    

 SPECIFIED CONSTRAINT TEMP FOR SELECTED NODES        14507 TO       14507 BY           1
 REAL=  36.3390000       IMAG=  0.00000000    

 SPECIFIED CONSTRAINT TEMP FOR SELECTED NODES        14508 TO       14508 BY           1
 REAL=  36.3440000       IMAG=  0.00000000    

 SPECIFIED CONSTRAINT TEMP FOR SELECTED NODES        14509 TO       14509 BY           1
 REAL=  36.3490000       IMAG=  0.00000000    

 SPECIFIED CONSTRAINT TEMP FOR SELECTED NODES        14510 TO       14510 BY           1
 REAL=  36.3540000       IMAG=  0.00000000    

 SPECIFIED CONSTRAINT TEMP FOR SELECTED NODES        14511 TO       14511 BY           1
 REAL=  36.3590000       IMAG=  0.00000000    

 SPECIFIED CONSTRAINT TEMP FOR SELECTED NODES        14512 TO       14512 BY           1
 REAL=  36.3640000       IMAG=  0.00000000    

 SPECIFIED CONSTRAINT TEMP FOR SELECTED NODES        14513 TO       14513 BY           1
 REAL=  36.3690000       IMAG=  0.00000000    

 SPECIFIED CONSTRAINT TEMP FOR SELECTED NODES        14514 TO       14514 BY           1
 REAL=  36.3740000       IMAG=  0.00000000    

 SPECIFIED CONSTRAINT TEMP FOR SELECTED NODES        14515 TO       14515 BY           1
 REAL=  36.3790000       IMAG=  0.00000000    

 SPECIFIED CONSTRAINT TEMP FOR SELECTED NODES        14516 TO       14516 BY           1
 REAL=  36.3840000       IMAG=  0.00000000    

 SPECIFIED CONSTRAINT TEMP FOR SELECTED NODES        14517 TO       14517 BY           1
 REAL=  36.3890000       IMAG=  0.00000000    

 SPECIFIED CONSTRAINT TEMP FOR SELECTED NODES        14518 TO       14518 BY           1
 REAL=  36.3940000       IMAG=  0.00000000    

 SPECIFIED CONSTRAINT TEMP FOR SELECTED NODES        14519 TO       14519 BY           1
 REAL=  36.3990000       IMAG=  0.00000000    

 SPECIFIED CONSTRAINT TEMP FOR SELECTED NODES        14520 TO       14520 BY           1
 REAL=  36.4040000       IMAG=  0.00000000    

 SPECIFIED CONSTRAINT TEMP FOR SELECTED NODES        14521 TO       14521 BY           1
 REAL=  36.4090000       IMAG=  0.00000000    

 SPECIFIED CONSTRAINT TEMP FOR SELECTED NODES        14522 TO       14522 BY           1
 REAL=  36.4140000       IMAG=  0.00000000    

 SPECIFIED CONSTRAINT TEMP FOR SELECTED NODES        14523 TO       14523 BY           1
 REAL=  36.4190000       IMAG=  0.00000000    

 SPECIFIED CONSTRAINT TEMP FOR SELECTED NODES        14524 TO       14524 BY           1
 REAL=  36.4240000       IMAG=  0.00000000    

 SPECIFIED CONSTRAINT TEMP FOR SELECTED NODES        14525 TO       14525 BY           1
 REAL=  36.4290000       IMAG=  0.00000000    

 SPECIFIED CONSTRAINT TEMP FOR SELECTED NODES        14526 TO       14526 BY           1
 REAL=  36.4340000       IMAG=  0.00000000    

 SPECIFIED CONSTRAINT TEMP FOR SELECTED NODES        14527 TO       14527 BY           1
 REAL=  36.4390000       IMAG=  0.00000000    

 SPECIFIED CONSTRAINT TEMP FOR SELECTED NODES        14528 TO       14528 BY           1
 REAL=  36.4440000       IMAG=  0.00000000    

 SPECIFIED CONSTRAINT TEMP FOR SELECTED NODES        14529 TO       14529 BY           1
 REAL=  36.4490000       IMAG=  0.00000000    

 SPECIFIED CONSTRAINT TEMP FOR SELECTED NODES        14530 TO       14530 BY           1
 REAL=  36.4540000       IMAG=  0.00000000    

 SPECIFIED CONSTRAINT TEMP FOR SELECTED NODES        14531 TO       14531 BY           1
 REAL=  36.4590000       IMAG=  0.00000000    

 SPECIFIED CONSTRAINT TEMP FOR SELECTED NODES        14532 TO       14532 BY           1
 REAL=  36.4630000       IMAG=  0.00000000    

 SPECIFIED CONSTRAINT TEMP FOR SELECTED NODES        14533 TO       14533 BY           1
 REAL=  36.4680000       IMAG=  0.00000000    

 SPECIFIED CONSTRAINT TEMP FOR SELECTED NODES        14534 TO       14534 BY           1
 REAL=  36.4730000       IMAG=  0.00000000    

 SPECIFIED CONSTRAINT TEMP FOR SELECTED NODES        14535 TO       14535 BY           1
 REAL=  36.4780000       IMAG=  0.00000000    

 SPECIFIED CONSTRAINT TEMP FOR SELECTED NODES        14536 TO       14536 BY           1
 REAL=  36.4830000       IMAG=  0.00000000    

 SPECIFIED CONSTRAINT TEMP FOR SELECTED NODES        14537 TO       14537 BY           1
 REAL=  36.4880000       IMAG=  0.00000000    

 SPECIFIED CONSTRAINT TEMP FOR SELECTED NODES        14538 TO       14538 BY           1
 REAL=  36.4930000       IMAG=  0.00000000    

 SPECIFIED CONSTRAINT TEMP FOR SELECTED NODES        14539 TO       14539 BY           1
 REAL=  36.4980000       IMAG=  0.00000000    

 SPECIFIED CONSTRAINT TEMP FOR SELECTED NODES        14540 TO       14540 BY           1
 REAL=  36.5030000       IMAG=  0.00000000    

 SPECIFIED CONSTRAINT TEMP FOR SELECTED NODES        14541 TO       14541 BY           1
 REAL=  36.5080000       IMAG=  0.00000000    

 SPECIFIED CONSTRAINT TEMP FOR SELECTED NODES        14542 TO       14542 BY           1
 REAL=  36.5130000       IMAG=  0.00000000    

 SPECIFIED CONSTRAINT TEMP FOR SELECTED NODES        14543 TO       14543 BY           1
 REAL=  36.5180000       IMAG=  0.00000000    

 SPECIFIED CONSTRAINT TEMP FOR SELECTED NODES        14544 TO       14544 BY           1
 REAL=  36.5230000       IMAG=  0.00000000    

 SPECIFIED CONSTRAINT TEMP FOR SELECTED NODES        14545 TO       14545 BY           1
 REAL=  36.5570000       IMAG=  0.00000000    

 SPECIFIED CONSTRAINT TEMP FOR SELECTED NODES        14546 TO       14546 BY           1
 REAL=  36.5330000       IMAG=  0.00000000    

 SPECIFIED CONSTRAINT TEMP FOR SELECTED NODES        14547 TO       14547 BY           1
 REAL=  36.5380000       IMAG=  0.00000000    

 SPECIFIED CONSTRAINT TEMP FOR SELECTED NODES        14548 TO       14548 BY           1
 REAL=  36.5430000       IMAG=  0.00000000    

 SPECIFIED CONSTRAINT TEMP FOR SELECTED NODES        14549 TO       14549 BY           1
 REAL=  36.5480000       IMAG=  0.00000000    

 SPECIFIED CONSTRAINT TEMP FOR SELECTED NODES        14550 TO       14550 BY           1
 REAL=  36.5530000       IMAG=  0.00000000    

 SPECIFIED CONSTRAINT TEMP FOR SELECTED NODES        14551 TO       14551 BY           1
 REAL=  36.6280000       IMAG=  0.00000000    

 SPECIFIED CONSTRAINT TEMP FOR SELECTED NODES        14552 TO       14552 BY           1
 REAL=  36.6240000       IMAG=  0.00000000    

 SPECIFIED CONSTRAINT TEMP FOR SELECTED NODES        14553 TO       14553 BY           1
 REAL=  36.6190000       IMAG=  0.00000000    

 SPECIFIED CONSTRAINT TEMP FOR SELECTED NODES        14554 TO       14554 BY           1
 REAL=  36.6140000       IMAG=  0.00000000    

 SPECIFIED CONSTRAINT TEMP FOR SELECTED NODES        14555 TO       14555 BY           1
 REAL=  36.6090000       IMAG=  0.00000000    

 SPECIFIED CONSTRAINT TEMP FOR SELECTED NODES        14556 TO       14556 BY           1
 REAL=  36.6050000       IMAG=  0.00000000    

 SPECIFIED CONSTRAINT TEMP FOR SELECTED NODES        14557 TO       14557 BY           1
 REAL=  36.6000000       IMAG=  0.00000000    

 SPECIFIED CONSTRAINT TEMP FOR SELECTED NODES        14558 TO       14558 BY           1
 REAL=  36.5950000       IMAG=  0.00000000    

 SPECIFIED CONSTRAINT TEMP FOR SELECTED NODES        14559 TO       14559 BY           1
 REAL=  36.5910000       IMAG=  0.00000000    

 SPECIFIED CONSTRAINT TEMP FOR SELECTED NODES        14560 TO       14560 BY           1
 REAL=  36.5860000       IMAG=  0.00000000    

 SPECIFIED CONSTRAINT TEMP FOR SELECTED NODES        14561 TO       14561 BY           1
 REAL=  36.5810000       IMAG=  0.00000000    

 SPECIFIED CONSTRAINT TEMP FOR SELECTED NODES        14562 TO       14562 BY           1
 REAL=  36.5760000       IMAG=  0.00000000    

 SPECIFIED CONSTRAINT TEMP FOR SELECTED NODES        14563 TO       14563 BY           1
 REAL=  36.5720000       IMAG=  0.00000000    

 SPECIFIED CONSTRAINT TEMP FOR SELECTED NODES        14564 TO       14564 BY           1
 REAL=  36.5670000       IMAG=  0.00000000    

 SPECIFIED CONSTRAINT TEMP FOR SELECTED NODES        14565 TO       14565 BY           1
 REAL=  36.5620000       IMAG=  0.00000000    

 SPECIFIED CONSTRAINT TEMP FOR SELECTED NODES        14566 TO       14566 BY           1
 REAL=  36.9540000       IMAG=  0.00000000    

 SPECIFIED CONSTRAINT TEMP FOR SELECTED NODES        14567 TO       14567 BY           1
 REAL=  36.9490000       IMAG=  0.00000000    

 SPECIFIED CONSTRAINT TEMP FOR SELECTED NODES        14568 TO       14568 BY           1
 REAL=  36.9440000       IMAG=  0.00000000    

 SPECIFIED CONSTRAINT TEMP FOR SELECTED NODES        14569 TO       14569 BY           1
 REAL=  36.9390000       IMAG=  0.00000000    

 SPECIFIED CONSTRAINT TEMP FOR SELECTED NODES        14570 TO       14570 BY           1
 REAL=  36.9340000       IMAG=  0.00000000    

 SPECIFIED CONSTRAINT TEMP FOR SELECTED NODES        14571 TO       14571 BY           1
 REAL=  36.9290000       IMAG=  0.00000000    

 SPECIFIED CONSTRAINT TEMP FOR SELECTED NODES        14572 TO       14572 BY           1
 REAL=  36.9250000       IMAG=  0.00000000    

 SPECIFIED CONSTRAINT TEMP FOR SELECTED NODES        14573 TO       14573 BY           1
 REAL=  36.9200000       IMAG=  0.00000000    

 SPECIFIED CONSTRAINT TEMP FOR SELECTED NODES        14574 TO       14574 BY           1
 REAL=  36.9150000       IMAG=  0.00000000    

 SPECIFIED CONSTRAINT TEMP FOR SELECTED NODES        14575 TO       14575 BY           1
 REAL=  36.9100000       IMAG=  0.00000000    

 SPECIFIED CONSTRAINT TEMP FOR SELECTED NODES        14576 TO       14576 BY           1
 REAL=  36.9050000       IMAG=  0.00000000    

 SPECIFIED CONSTRAINT TEMP FOR SELECTED NODES        14577 TO       14577 BY           1
 REAL=  36.9000000       IMAG=  0.00000000    

 SPECIFIED CONSTRAINT TEMP FOR SELECTED NODES        14578 TO       14578 BY           1
 REAL=  36.8950000       IMAG=  0.00000000    

 SPECIFIED CONSTRAINT TEMP FOR SELECTED NODES        14579 TO       14579 BY           1
 REAL=  36.8900000       IMAG=  0.00000000    

 SPECIFIED CONSTRAINT TEMP FOR SELECTED NODES        14580 TO       14580 BY           1
 REAL=  36.8850000       IMAG=  0.00000000    

 SPECIFIED CONSTRAINT TEMP FOR SELECTED NODES        14581 TO       14581 BY           1
 REAL=  36.8800000       IMAG=  0.00000000    

 SPECIFIED CONSTRAINT TEMP FOR SELECTED NODES        14582 TO       14582 BY           1
 REAL=  36.8750000       IMAG=  0.00000000    

 SPECIFIED CONSTRAINT TEMP FOR SELECTED NODES        14583 TO       14583 BY           1
 REAL=  36.8700000       IMAG=  0.00000000    

 SPECIFIED CONSTRAINT TEMP FOR SELECTED NODES        14584 TO       14584 BY           1
 REAL=  36.8650000       IMAG=  0.00000000    

 SPECIFIED CONSTRAINT TEMP FOR SELECTED NODES        14585 TO       14585 BY           1
 REAL=  36.8600000       IMAG=  0.00000000    

 SPECIFIED CONSTRAINT TEMP FOR SELECTED NODES        14586 TO       14586 BY           1
 REAL=  36.8550000       IMAG=  0.00000000    

 SPECIFIED CONSTRAINT TEMP FOR SELECTED NODES        14587 TO       14587 BY           1
 REAL=  36.8510000       IMAG=  0.00000000    

 SPECIFIED CONSTRAINT TEMP FOR SELECTED NODES        14588 TO       14588 BY           1
 REAL=  36.8460000       IMAG=  0.00000000    

 SPECIFIED CONSTRAINT TEMP FOR SELECTED NODES        14589 TO       14589 BY           1
 REAL=  36.8410000       IMAG=  0.00000000    

 SPECIFIED CONSTRAINT TEMP FOR SELECTED NODES        14590 TO       14590 BY           1
 REAL=  36.8360000       IMAG=  0.00000000    

 SPECIFIED CONSTRAINT TEMP FOR SELECTED NODES        14591 TO       14591 BY           1
 REAL=  36.8310000       IMAG=  0.00000000    

 SPECIFIED CONSTRAINT TEMP FOR SELECTED NODES        14592 TO       14592 BY           1
 REAL=  36.8260000       IMAG=  0.00000000    

 SPECIFIED CONSTRAINT TEMP FOR SELECTED NODES        14593 TO       14593 BY           1
 REAL=  36.8210000       IMAG=  0.00000000    

 SPECIFIED CONSTRAINT TEMP FOR SELECTED NODES        14594 TO       14594 BY           1
 REAL=  36.8160000       IMAG=  0.00000000    

 SPECIFIED CONSTRAINT TEMP FOR SELECTED NODES        14595 TO       14595 BY           1
 REAL=  36.8110000       IMAG=  0.00000000    

 SPECIFIED CONSTRAINT TEMP FOR SELECTED NODES        14596 TO       14596 BY           1
 REAL=  36.8060000       IMAG=  0.00000000    

 SPECIFIED CONSTRAINT TEMP FOR SELECTED NODES        14597 TO       14597 BY           1
 REAL=  36.8010000       IMAG=  0.00000000    

 SPECIFIED CONSTRAINT TEMP FOR SELECTED NODES        14598 TO       14598 BY           1
 REAL=  36.7960000       IMAG=  0.00000000    

 SPECIFIED CONSTRAINT TEMP FOR SELECTED NODES        14599 TO       14599 BY           1
 REAL=  36.7910000       IMAG=  0.00000000    

 SPECIFIED CONSTRAINT TEMP FOR SELECTED NODES        14600 TO       14600 BY           1
 REAL=  36.7860000       IMAG=  0.00000000    

 SPECIFIED CONSTRAINT TEMP FOR SELECTED NODES        14601 TO       14601 BY           1
 REAL=  36.7810000       IMAG=  0.00000000    

 SPECIFIED CONSTRAINT TEMP FOR SELECTED NODES        14602 TO       14602 BY           1
 REAL=  36.7760000       IMAG=  0.00000000    

 SPECIFIED CONSTRAINT TEMP FOR SELECTED NODES        14603 TO       14603 BY           1
 REAL=  36.7720000       IMAG=  0.00000000    

 SPECIFIED CONSTRAINT TEMP FOR SELECTED NODES        14604 TO       14604 BY           1
 REAL=  36.7670000       IMAG=  0.00000000    

 SPECIFIED CONSTRAINT TEMP FOR SELECTED NODES        14605 TO       14605 BY           1
 REAL=  36.7620000       IMAG=  0.00000000    

 SPECIFIED CONSTRAINT TEMP FOR SELECTED NODES        14606 TO       14606 BY           1
 REAL=  36.7570000       IMAG=  0.00000000    

 SPECIFIED CONSTRAINT TEMP FOR SELECTED NODES        14607 TO       14607 BY           1
 REAL=  36.7520000       IMAG=  0.00000000    

 SPECIFIED CONSTRAINT TEMP FOR SELECTED NODES        14608 TO       14608 BY           1
 REAL=  36.7470000       IMAG=  0.00000000    

 SPECIFIED CONSTRAINT TEMP FOR SELECTED NODES        14609 TO       14609 BY           1
 REAL=  36.7420000       IMAG=  0.00000000    

 SPECIFIED CONSTRAINT TEMP FOR SELECTED NODES        14610 TO       14610 BY           1
 REAL=  36.7370000       IMAG=  0.00000000    

 SPECIFIED CONSTRAINT TEMP FOR SELECTED NODES        14611 TO       14611 BY           1
 REAL=  36.7320000       IMAG=  0.00000000    

 SPECIFIED CONSTRAINT TEMP FOR SELECTED NODES        14612 TO       14612 BY           1
 REAL=  36.7270000       IMAG=  0.00000000    

 SPECIFIED CONSTRAINT TEMP FOR SELECTED NODES        14613 TO       14613 BY           1
 REAL=  36.7220000       IMAG=  0.00000000    

 SPECIFIED CONSTRAINT TEMP FOR SELECTED NODES        14614 TO       14614 BY           1
 REAL=  36.7170000       IMAG=  0.00000000    

 SPECIFIED CONSTRAINT TEMP FOR SELECTED NODES        14615 TO       14615 BY           1
 REAL=  36.7120000       IMAG=  0.00000000    

 SPECIFIED CONSTRAINT TEMP FOR SELECTED NODES        14616 TO       14616 BY           1
 REAL=  36.7070000       IMAG=  0.00000000    

 SPECIFIED CONSTRAINT TEMP FOR SELECTED NODES        14617 TO       14617 BY           1
 REAL=  36.7020000       IMAG=  0.00000000    

 SPECIFIED CONSTRAINT TEMP FOR SELECTED NODES        14618 TO       14618 BY           1
 REAL=  36.6980000       IMAG=  0.00000000    

 SPECIFIED CONSTRAINT TEMP FOR SELECTED NODES        14619 TO       14619 BY           1
 REAL=  36.6930000       IMAG=  0.00000000    

 SPECIFIED CONSTRAINT TEMP FOR SELECTED NODES        14620 TO       14620 BY           1
 REAL=  36.6880000       IMAG=  0.00000000    

 SPECIFIED CONSTRAINT TEMP FOR SELECTED NODES        14621 TO       14621 BY           1
 REAL=  36.6830000       IMAG=  0.00000000    

 SPECIFIED CONSTRAINT TEMP FOR SELECTED NODES        14622 TO       14622 BY           1
 REAL=  36.6780000       IMAG=  0.00000000    

 SPECIFIED CONSTRAINT TEMP FOR SELECTED NODES        14623 TO       14623 BY           1
 REAL=  36.6730000       IMAG=  0.00000000    

 SPECIFIED CONSTRAINT TEMP FOR SELECTED NODES        14624 TO       14624 BY           1
 REAL=  36.6680000       IMAG=  0.00000000    

 SPECIFIED CONSTRAINT TEMP FOR SELECTED NODES        14625 TO       14625 BY           1
 REAL=  36.6630000       IMAG=  0.00000000    

 SPECIFIED CONSTRAINT TEMP FOR SELECTED NODES        14626 TO       14626 BY           1
 REAL=  36.6580000       IMAG=  0.00000000    

 SPECIFIED CONSTRAINT TEMP FOR SELECTED NODES        14627 TO       14627 BY           1
 REAL=  36.6530000       IMAG=  0.00000000    

 SPECIFIED CONSTRAINT TEMP FOR SELECTED NODES        14628 TO       14628 BY           1
 REAL=  36.6480000       IMAG=  0.00000000    

 SPECIFIED CONSTRAINT TEMP FOR SELECTED NODES        14629 TO       14629 BY           1
 REAL=  36.6430000       IMAG=  0.00000000    

 SPECIFIED CONSTRAINT TEMP FOR SELECTED NODES        14630 TO       14630 BY           1
 REAL=  36.6380000       IMAG=  0.00000000    

 SPECIFIED CONSTRAINT TEMP FOR SELECTED NODES        14631 TO       14631 BY           1
 REAL=  36.6330000       IMAG=  0.00000000    

 SPECIFIED CONSTRAINT TEMP FOR SELECTED NODES        14632 TO       14632 BY           1
 REAL=  36.9680000       IMAG=  0.00000000    

 SPECIFIED CONSTRAINT TEMP FOR SELECTED NODES        14633 TO       14633 BY           1
 REAL=  36.9640000       IMAG=  0.00000000    

 SPECIFIED CONSTRAINT TEMP FOR SELECTED NODES        14634 TO       14634 BY           1
 REAL=  36.9590000       IMAG=  0.00000000    

 SPECIFIED CONSTRAINT TEMP FOR SELECTED NODES        14635 TO       14635 BY           1
 REAL=  37.2800000       IMAG=  0.00000000    

 SPECIFIED CONSTRAINT TEMP FOR SELECTED NODES        14636 TO       14636 BY           1
 REAL=  37.2750000       IMAG=  0.00000000    

 SPECIFIED CONSTRAINT TEMP FOR SELECTED NODES        14637 TO       14637 BY           1
 REAL=  37.2700000       IMAG=  0.00000000    

 SPECIFIED CONSTRAINT TEMP FOR SELECTED NODES        14638 TO       14638 BY           1
 REAL=  37.2650000       IMAG=  0.00000000    

 SPECIFIED CONSTRAINT TEMP FOR SELECTED NODES        14639 TO       14639 BY           1
 REAL=  37.2600000       IMAG=  0.00000000    

 SPECIFIED CONSTRAINT TEMP FOR SELECTED NODES        14640 TO       14640 BY           1
 REAL=  37.2550000       IMAG=  0.00000000    

 SPECIFIED CONSTRAINT TEMP FOR SELECTED NODES        14641 TO       14641 BY           1
 REAL=  37.2500000       IMAG=  0.00000000    

 SPECIFIED CONSTRAINT TEMP FOR SELECTED NODES        14642 TO       14642 BY           1
 REAL=  37.2450000       IMAG=  0.00000000    

 SPECIFIED CONSTRAINT TEMP FOR SELECTED NODES        14643 TO       14643 BY           1
 REAL=  37.2400000       IMAG=  0.00000000    

 SPECIFIED CONSTRAINT TEMP FOR SELECTED NODES        14644 TO       14644 BY           1
 REAL=  37.2350000       IMAG=  0.00000000    

 SPECIFIED CONSTRAINT TEMP FOR SELECTED NODES        14645 TO       14645 BY           1
 REAL=  37.2310000       IMAG=  0.00000000    

 SPECIFIED CONSTRAINT TEMP FOR SELECTED NODES        14646 TO       14646 BY           1
 REAL=  37.2260000       IMAG=  0.00000000    

 SPECIFIED CONSTRAINT TEMP FOR SELECTED NODES        14647 TO       14647 BY           1
 REAL=  37.2210000       IMAG=  0.00000000    

 SPECIFIED CONSTRAINT TEMP FOR SELECTED NODES        14648 TO       14648 BY           1
 REAL=  37.2160000       IMAG=  0.00000000    

 SPECIFIED CONSTRAINT TEMP FOR SELECTED NODES        14649 TO       14649 BY           1
 REAL=  37.2110000       IMAG=  0.00000000    

 SPECIFIED CONSTRAINT TEMP FOR SELECTED NODES        14650 TO       14650 BY           1
 REAL=  37.2060000       IMAG=  0.00000000    

 SPECIFIED CONSTRAINT TEMP FOR SELECTED NODES        14651 TO       14651 BY           1
 REAL=  37.2010000       IMAG=  0.00000000    

 SPECIFIED CONSTRAINT TEMP FOR SELECTED NODES        14652 TO       14652 BY           1
 REAL=  37.1960000       IMAG=  0.00000000    

 SPECIFIED CONSTRAINT TEMP FOR SELECTED NODES        14653 TO       14653 BY           1
 REAL=  37.1910000       IMAG=  0.00000000    

 SPECIFIED CONSTRAINT TEMP FOR SELECTED NODES        14654 TO       14654 BY           1
 REAL=  37.1860000       IMAG=  0.00000000    

 SPECIFIED CONSTRAINT TEMP FOR SELECTED NODES        14655 TO       14655 BY           1
 REAL=  37.1810000       IMAG=  0.00000000    

 SPECIFIED CONSTRAINT TEMP FOR SELECTED NODES        14656 TO       14656 BY           1
 REAL=  37.1760000       IMAG=  0.00000000    

 SPECIFIED CONSTRAINT TEMP FOR SELECTED NODES        14657 TO       14657 BY           1
 REAL=  37.1710000       IMAG=  0.00000000    

 SPECIFIED CONSTRAINT TEMP FOR SELECTED NODES        14658 TO       14658 BY           1
 REAL=  37.1660000       IMAG=  0.00000000    

 SPECIFIED CONSTRAINT TEMP FOR SELECTED NODES        14659 TO       14659 BY           1
 REAL=  37.1610000       IMAG=  0.00000000    

 SPECIFIED CONSTRAINT TEMP FOR SELECTED NODES        14660 TO       14660 BY           1
 REAL=  37.1560000       IMAG=  0.00000000    

 SPECIFIED CONSTRAINT TEMP FOR SELECTED NODES        14661 TO       14661 BY           1
 REAL=  37.1510000       IMAG=  0.00000000    

 SPECIFIED CONSTRAINT TEMP FOR SELECTED NODES        14662 TO       14662 BY           1
 REAL=  37.1460000       IMAG=  0.00000000    

 SPECIFIED CONSTRAINT TEMP FOR SELECTED NODES        14663 TO       14663 BY           1
 REAL=  37.1420000       IMAG=  0.00000000    

 SPECIFIED CONSTRAINT TEMP FOR SELECTED NODES        14664 TO       14664 BY           1
 REAL=  37.1370000       IMAG=  0.00000000    

 SPECIFIED CONSTRAINT TEMP FOR SELECTED NODES        14665 TO       14665 BY           1
 REAL=  37.1320000       IMAG=  0.00000000    

 SPECIFIED CONSTRAINT TEMP FOR SELECTED NODES        14666 TO       14666 BY           1
 REAL=  37.1270000       IMAG=  0.00000000    

 SPECIFIED CONSTRAINT TEMP FOR SELECTED NODES        14667 TO       14667 BY           1
 REAL=  37.1220000       IMAG=  0.00000000    

 SPECIFIED CONSTRAINT TEMP FOR SELECTED NODES        14668 TO       14668 BY           1
 REAL=  37.1170000       IMAG=  0.00000000    

 SPECIFIED CONSTRAINT TEMP FOR SELECTED NODES        14669 TO       14669 BY           1
 REAL=  37.1120000       IMAG=  0.00000000    

 SPECIFIED CONSTRAINT TEMP FOR SELECTED NODES        14670 TO       14670 BY           1
 REAL=  37.1070000       IMAG=  0.00000000    

 SPECIFIED CONSTRAINT TEMP FOR SELECTED NODES        14671 TO       14671 BY           1
 REAL=  37.1020000       IMAG=  0.00000000    

 SPECIFIED CONSTRAINT TEMP FOR SELECTED NODES        14672 TO       14672 BY           1
 REAL=  37.0970000       IMAG=  0.00000000    

 SPECIFIED CONSTRAINT TEMP FOR SELECTED NODES        14673 TO       14673 BY           1
 REAL=  37.0920000       IMAG=  0.00000000    

 SPECIFIED CONSTRAINT TEMP FOR SELECTED NODES        14674 TO       14674 BY           1
 REAL=  37.0870000       IMAG=  0.00000000    

 SPECIFIED CONSTRAINT TEMP FOR SELECTED NODES        14675 TO       14675 BY           1
 REAL=  37.0820000       IMAG=  0.00000000    

 SPECIFIED CONSTRAINT TEMP FOR SELECTED NODES        14676 TO       14676 BY           1
 REAL=  37.0770000       IMAG=  0.00000000    

 SPECIFIED CONSTRAINT TEMP FOR SELECTED NODES        14677 TO       14677 BY           1
 REAL=  37.0720000       IMAG=  0.00000000    

 SPECIFIED CONSTRAINT TEMP FOR SELECTED NODES        14678 TO       14678 BY           1
 REAL=  37.0670000       IMAG=  0.00000000    

 SPECIFIED CONSTRAINT TEMP FOR SELECTED NODES        14679 TO       14679 BY           1
 REAL=  37.0620000       IMAG=  0.00000000    

 SPECIFIED CONSTRAINT TEMP FOR SELECTED NODES        14680 TO       14680 BY           1
 REAL=  37.0570000       IMAG=  0.00000000    

 SPECIFIED CONSTRAINT TEMP FOR SELECTED NODES        14681 TO       14681 BY           1
 REAL=  37.0530000       IMAG=  0.00000000    

 SPECIFIED CONSTRAINT TEMP FOR SELECTED NODES        14682 TO       14682 BY           1
 REAL=  37.0480000       IMAG=  0.00000000    

 SPECIFIED CONSTRAINT TEMP FOR SELECTED NODES        14683 TO       14683 BY           1
 REAL=  37.0430000       IMAG=  0.00000000    

 SPECIFIED CONSTRAINT TEMP FOR SELECTED NODES        14684 TO       14684 BY           1
 REAL=  37.0380000       IMAG=  0.00000000    

 SPECIFIED CONSTRAINT TEMP FOR SELECTED NODES        14685 TO       14685 BY           1
 REAL=  37.0330000       IMAG=  0.00000000    

 SPECIFIED CONSTRAINT TEMP FOR SELECTED NODES        14686 TO       14686 BY           1
 REAL=  37.0280000       IMAG=  0.00000000    

 SPECIFIED CONSTRAINT TEMP FOR SELECTED NODES        14687 TO       14687 BY           1
 REAL=  37.0230000       IMAG=  0.00000000    

 SPECIFIED CONSTRAINT TEMP FOR SELECTED NODES        14688 TO       14688 BY           1
 REAL=  37.0180000       IMAG=  0.00000000    

 SPECIFIED CONSTRAINT TEMP FOR SELECTED NODES        14689 TO       14689 BY           1
 REAL=  37.0130000       IMAG=  0.00000000    

 SPECIFIED CONSTRAINT TEMP FOR SELECTED NODES        14690 TO       14690 BY           1
 REAL=  37.0080000       IMAG=  0.00000000    

 SPECIFIED CONSTRAINT TEMP FOR SELECTED NODES        14691 TO       14691 BY           1
 REAL=  37.0030000       IMAG=  0.00000000    

 SPECIFIED CONSTRAINT TEMP FOR SELECTED NODES        14692 TO       14692 BY           1
 REAL=  36.9980000       IMAG=  0.00000000    

 SPECIFIED CONSTRAINT TEMP FOR SELECTED NODES        14693 TO       14693 BY           1
 REAL=  36.9930000       IMAG=  0.00000000    

 SPECIFIED CONSTRAINT TEMP FOR SELECTED NODES        14694 TO       14694 BY           1
 REAL=  36.9880000       IMAG=  0.00000000    

 SPECIFIED CONSTRAINT TEMP FOR SELECTED NODES        14695 TO       14695 BY           1
 REAL=  36.9830000       IMAG=  0.00000000    

 SPECIFIED CONSTRAINT TEMP FOR SELECTED NODES        14696 TO       14696 BY           1
 REAL=  36.9780000       IMAG=  0.00000000    

 SPECIFIED CONSTRAINT TEMP FOR SELECTED NODES        14697 TO       14697 BY           1
 REAL=  36.9730000       IMAG=  0.00000000    

 SPECIFIED CONSTRAINT TEMP FOR SELECTED NODES        14698 TO       14698 BY           1
 REAL=  37.5270000       IMAG=  0.00000000    

 SPECIFIED CONSTRAINT TEMP FOR SELECTED NODES        14699 TO       14699 BY           1
 REAL=  37.5220000       IMAG=  0.00000000    

 SPECIFIED CONSTRAINT TEMP FOR SELECTED NODES        14700 TO       14700 BY           1
 REAL=  37.5170000       IMAG=  0.00000000    

 SPECIFIED CONSTRAINT TEMP FOR SELECTED NODES        14701 TO       14701 BY           1
 REAL=  37.5120000       IMAG=  0.00000000    

 SPECIFIED CONSTRAINT TEMP FOR SELECTED NODES        14702 TO       14702 BY           1
 REAL=  37.5070000       IMAG=  0.00000000    

 SPECIFIED CONSTRAINT TEMP FOR SELECTED NODES        14703 TO       14703 BY           1
 REAL=  37.5020000       IMAG=  0.00000000    

 SPECIFIED CONSTRAINT TEMP FOR SELECTED NODES        14704 TO       14704 BY           1
 REAL=  37.4970000       IMAG=  0.00000000    

 SPECIFIED CONSTRAINT TEMP FOR SELECTED NODES        14705 TO       14705 BY           1
 REAL=  37.4930000       IMAG=  0.00000000    

 SPECIFIED CONSTRAINT TEMP FOR SELECTED NODES        14706 TO       14706 BY           1
 REAL=  37.4880000       IMAG=  0.00000000    

 SPECIFIED CONSTRAINT TEMP FOR SELECTED NODES        14707 TO       14707 BY           1
 REAL=  37.4830000       IMAG=  0.00000000    

 SPECIFIED CONSTRAINT TEMP FOR SELECTED NODES        14708 TO       14708 BY           1
 REAL=  37.4780000       IMAG=  0.00000000    

 SPECIFIED CONSTRAINT TEMP FOR SELECTED NODES        14709 TO       14709 BY           1
 REAL=  37.4730000       IMAG=  0.00000000    

 SPECIFIED CONSTRAINT TEMP FOR SELECTED NODES        14710 TO       14710 BY           1
 REAL=  37.4680000       IMAG=  0.00000000    

 SPECIFIED CONSTRAINT TEMP FOR SELECTED NODES        14711 TO       14711 BY           1
 REAL=  37.4630000       IMAG=  0.00000000    

 SPECIFIED CONSTRAINT TEMP FOR SELECTED NODES        14712 TO       14712 BY           1
 REAL=  37.4580000       IMAG=  0.00000000    

 SPECIFIED CONSTRAINT TEMP FOR SELECTED NODES        14713 TO       14713 BY           1
 REAL=  37.4530000       IMAG=  0.00000000    

 SPECIFIED CONSTRAINT TEMP FOR SELECTED NODES        14714 TO       14714 BY           1
 REAL=  37.4480000       IMAG=  0.00000000    

 SPECIFIED CONSTRAINT TEMP FOR SELECTED NODES        14715 TO       14715 BY           1
 REAL=  37.4430000       IMAG=  0.00000000    

 SPECIFIED CONSTRAINT TEMP FOR SELECTED NODES        14716 TO       14716 BY           1
 REAL=  37.4380000       IMAG=  0.00000000    

 SPECIFIED CONSTRAINT TEMP FOR SELECTED NODES        14717 TO       14717 BY           1
 REAL=  37.4330000       IMAG=  0.00000000    

 SPECIFIED CONSTRAINT TEMP FOR SELECTED NODES        14718 TO       14718 BY           1
 REAL=  37.4280000       IMAG=  0.00000000    

 SPECIFIED CONSTRAINT TEMP FOR SELECTED NODES        14719 TO       14719 BY           1
 REAL=  37.4230000       IMAG=  0.00000000    

 SPECIFIED CONSTRAINT TEMP FOR SELECTED NODES        14720 TO       14720 BY           1
 REAL=  37.4180000       IMAG=  0.00000000    

 SPECIFIED CONSTRAINT TEMP FOR SELECTED NODES        14721 TO       14721 BY           1
 REAL=  37.4130000       IMAG=  0.00000000    

 SPECIFIED CONSTRAINT TEMP FOR SELECTED NODES        14722 TO       14722 BY           1
 REAL=  37.4080000       IMAG=  0.00000000    

 SPECIFIED CONSTRAINT TEMP FOR SELECTED NODES        14723 TO       14723 BY           1
 REAL=  37.4040000       IMAG=  0.00000000    

 SPECIFIED CONSTRAINT TEMP FOR SELECTED NODES        14724 TO       14724 BY           1
 REAL=  37.3990000       IMAG=  0.00000000    

 SPECIFIED CONSTRAINT TEMP FOR SELECTED NODES        14725 TO       14725 BY           1
 REAL=  37.3940000       IMAG=  0.00000000    

 SPECIFIED CONSTRAINT TEMP FOR SELECTED NODES        14726 TO       14726 BY           1
 REAL=  37.3890000       IMAG=  0.00000000    

 SPECIFIED CONSTRAINT TEMP FOR SELECTED NODES        14727 TO       14727 BY           1
 REAL=  37.3840000       IMAG=  0.00000000    

 SPECIFIED CONSTRAINT TEMP FOR SELECTED NODES        14728 TO       14728 BY           1
 REAL=  37.3790000       IMAG=  0.00000000    

 SPECIFIED CONSTRAINT TEMP FOR SELECTED NODES        14729 TO       14729 BY           1
 REAL=  37.3740000       IMAG=  0.00000000    

 SPECIFIED CONSTRAINT TEMP FOR SELECTED NODES        14730 TO       14730 BY           1
 REAL=  37.3690000       IMAG=  0.00000000    

[...]
 REAL=  44.8410000       IMAG=  0.00000000    

 SPECIFIED CONSTRAINT TEMP FOR SELECTED NODES         1564 TO        1564 BY           1
 REAL=  44.8350000       IMAG=  0.00000000    

 SPECIFIED CONSTRAINT TEMP FOR SELECTED NODES         1565 TO        1565 BY           1
 REAL=  44.8290000       IMAG=  0.00000000    

 SPECIFIED CONSTRAINT TEMP FOR SELECTED NODES         1566 TO        1566 BY           1
 REAL=  44.8230000       IMAG=  0.00000000    

 SPECIFIED CONSTRAINT TEMP FOR SELECTED NODES         1567 TO        1567 BY           1
 REAL=  44.8170000       IMAG=  0.00000000    

 SPECIFIED CONSTRAINT TEMP FOR SELECTED NODES         1568 TO        1568 BY           1
 REAL=  44.8110000       IMAG=  0.00000000    

 SPECIFIED CONSTRAINT TEMP FOR SELECTED NODES         1569 TO        1569 BY           1
 REAL=  44.8050000       IMAG=  0.00000000    

 SPECIFIED CONSTRAINT TEMP FOR SELECTED NODES         1570 TO        1570 BY           1
 REAL=  44.7990000       IMAG=  0.00000000    

 SPECIFIED CONSTRAINT TEMP FOR SELECTED NODES         1571 TO        1571 BY           1
 REAL=  44.9420000       IMAG=  0.00000000    

 SPECIFIED CONSTRAINT TEMP FOR SELECTED NODES         1572 TO        1572 BY           1
 REAL=  44.9350000       IMAG=  0.00000000    

 SPECIFIED CONSTRAINT TEMP FOR SELECTED NODES         1573 TO        1573 BY           1
 REAL=  44.9290000       IMAG=  0.00000000    

 SPECIFIED CONSTRAINT TEMP FOR SELECTED NODES         1574 TO        1574 BY           1
 REAL=  44.9230000       IMAG=  0.00000000    

 SPECIFIED CONSTRAINT TEMP FOR SELECTED NODES         1575 TO        1575 BY           1
 REAL=  44.9160000       IMAG=  0.00000000    

 SPECIFIED CONSTRAINT TEMP FOR SELECTED NODES         1576 TO        1576 BY           1
 REAL=  44.9100000       IMAG=  0.00000000    

 SPECIFIED CONSTRAINT TEMP FOR SELECTED NODES         1577 TO        1577 BY           1
 REAL=  44.9030000       IMAG=  0.00000000    

 SPECIFIED CONSTRAINT TEMP FOR SELECTED NODES         1578 TO        1578 BY           1
 REAL=  44.8970000       IMAG=  0.00000000    

 SPECIFIED CONSTRAINT TEMP FOR SELECTED NODES         1579 TO        1579 BY           1
 REAL=  44.8910000       IMAG=  0.00000000    

 SPECIFIED CONSTRAINT TEMP FOR SELECTED NODES         1580 TO        1580 BY           1
 REAL=  44.8840000       IMAG=  0.00000000    

 SPECIFIED CONSTRAINT TEMP FOR SELECTED NODES         1581 TO        1581 BY           1
 REAL=  44.8780000       IMAG=  0.00000000    

 SPECIFIED CONSTRAINT TEMP FOR SELECTED NODES         1582 TO        1582 BY           1
 REAL=  44.9700000       IMAG=  0.00000000    

 SPECIFIED CONSTRAINT TEMP FOR SELECTED NODES         1583 TO        1583 BY           1
 REAL=  44.9640000       IMAG=  0.00000000    

 SPECIFIED CONSTRAINT TEMP FOR SELECTED NODES         1584 TO        1584 BY           1
 REAL=  44.9580000       IMAG=  0.00000000    

 SPECIFIED CONSTRAINT TEMP FOR SELECTED NODES         1585 TO        1585 BY           1
 REAL=  44.9530000       IMAG=  0.00000000    

 SPECIFIED CONSTRAINT TEMP FOR SELECTED NODES         1586 TO        1586 BY           1
 REAL=  44.9470000       IMAG=  0.00000000    

 SPECIFIED CONSTRAINT TEMP FOR SELECTED NODES         1587 TO        1587 BY           1
 REAL=  45.0000000       IMAG=  0.00000000    

 SPECIFIED CONSTRAINT TEMP FOR SELECTED NODES         1588 TO        1588 BY           1
 REAL=  44.9940000       IMAG=  0.00000000    

 SPECIFIED CONSTRAINT TEMP FOR SELECTED NODES         1589 TO        1589 BY           1
 REAL=  44.9880000       IMAG=  0.00000000    

 SPECIFIED CONSTRAINT TEMP FOR SELECTED NODES         1590 TO        1590 BY           1
 REAL=  44.9820000       IMAG=  0.00000000    

 SPECIFIED CONSTRAINT TEMP FOR SELECTED NODES         1591 TO        1591 BY           1
 REAL=  44.9760000       IMAG=  0.00000000    

 *GET  ANSINTER_  FROM  ACTI  ITEM=INT        VALUE=  0.00000000    

 *IF  ANSINTER_                         ( =   0.00000     )  NE  
      0                                 ( =   0.00000     )  THEN    

 *ENDIF

 *** NOTE ***                            CP =       2.594   TIME= 15:14:33
 The automatic domain decomposition logic has selected the MESH domain   
 decomposition method with 2 processes per solution.                     

 *****  ANSYS SOLVE    COMMAND  *****

 *** WARNING ***                         CP =       2.656   TIME= 15:14:33
 Element shape checking is currently inactive.  Issue SHPP,ON or         
 SHPP,WARN to reactivate, if desired.                                    

 *** NOTE ***                            CP =       2.938   TIME= 15:14:34
 The model data was checked and warning messages were found.             
  Please review output or errors file (                                  
 D:\石甘泉文件夹\UnderfloorHeatingLayout\fig\experiment2\balcony3\ours\a 
 ansys\_ProjectScratch\ScrEBBB\file0.err ) for these warning messages.   

 *** ANSYS - ENGINEERING ANALYSIS SYSTEM  RELEASE 2020 R2          20.2     ***
 DISTRIBUTED ANSYS Mechanical Enterprise                       

 20120530  VERSION=WINDOWS x64   15:14:34  FEB 15, 2022 CP=      2.938

 layout--Steady-State Thermal (A5)                                             



                       S O L U T I O N   O P T I O N S

   PROBLEM DIMENSIONALITY. . . . . . . . . . . . .3-D                  
   DEGREES OF FREEDOM. . . . . . TEMP
   ANALYSIS TYPE . . . . . . . . . . . . . . . . .STATIC (STEADY-STATE)
   OFFSET TEMPERATURE FROM ABSOLUTE ZERO . . . . .  273.15    
   GLOBALLY ASSEMBLED MATRIX . . . . . . . . . . .SYMMETRIC  

 *** WARNING ***                         CP =       3.125   TIME= 15:14:34
 Material number 12 (used by element 165147) should normally have at     
 least one MP or one TB type command associated with it.  Output of      
 energy by material may not be available.                                

 *** NOTE ***                            CP =       3.625   TIME= 15:14:34
 The step data was checked and warning messages were found.              
  Please review output or errors file (                                  
 D:\石甘泉文件夹\UnderfloorHeatingLayout\fig\experiment2\balcony3\ours\a 
 ansys\_ProjectScratch\ScrEBBB\file0.err ) for these warning messages.   

 *** NOTE ***                            CP =       3.625   TIME= 15:14:34
 The conditions for direct assembly have been met.  No .emat or .erot    
 files will be produced.                                                 

  
  
     D I S T R I B U T E D   D O M A I N   D E C O M P O S E R
  
  ...Number of elements: 314038
  ...Number of nodes:    91206
  ...Decompose to 2 CPU domains
  ...Element load balance ratio =     1.015


                      L O A D   S T E P   O P T I O N S

   LOAD STEP NUMBER. . . . . . . . . . . . . . . .     1
   TIME AT END OF THE LOAD STEP. . . . . . . . . .  1.0000    
   AUTOMATIC TIME STEPPING . . . . . . . . . . . .    ON
      INITIAL NUMBER OF SUBSTEPS . . . . . . . . .     1
      MAXIMUM NUMBER OF SUBSTEPS . . . . . . . . .    10
      MINIMUM NUMBER OF SUBSTEPS . . . . . . . . .     1
   STEP CHANGE BOUNDARY CONDITIONS . . . . . . . .    NO
   PRINT OUTPUT CONTROLS . . . . . . . . . . . . .NO PRINTOUT
   DATABASE OUTPUT CONTROLS
      ITEM     FREQUENCY   COMPONENT
       ALL       NONE               
      NSOL        ALL               
      RSOL        ALL               
      EANG        ALL               
      VENG        ALL               
      FFLU        ALL               
      CONT        ALL               
      MISC        ALL       _ELMISC 


 SOLUTION MONITORING INFO IS WRITTEN TO FILE= file.mntr                                                                                                                                                                                                                                                           




            **** CENTER OF MASS, MASS, AND MASS MOMENTS OF INERTIA ****

  CALCULATIONS ASSUME ELEMENT MASS AT ELEMENT CENTROID

  TOTAL MASS =   351.07    

                           MOM. OF INERTIA         MOM. OF INERTIA
  CENTER OF MASS            ABOUT ORIGIN        ABOUT CENTER OF MASS

  XC =   10.439          IXX =   0.2495E+05      IXX =    4644.    
  YC =   7.6055          IYY =   0.4770E+05      IYY =    9437.    
  ZC =   0.0000          IZZ =   0.7265E+05      IZZ =   0.1408E+05
                         IXY =  -0.2652E+05      IXY =    1353.    
                         IYZ =    0.000          IYZ =    0.000    
                         IZX =    0.000          IZX =    0.000    


  *** MASS SUMMARY BY ELEMENT TYPE ***

  TYPE      MASS
     2   43.8257    
     3   35.0511    
     4   24.7952    
     5   25.4979    
     6   46.0322    
     7   44.3937    
     8   26.5383    
     9   39.7241    
    10   31.0845    
    11   34.1314    

 Range of element maximum matrix coefficients in global coordinates
 Maximum = 1.41193758 at element 98812.                                  
 Minimum = 9.833134492E-04 at element 264245.                            

   *** ELEMENT MATRIX FORMULATION TIMES
     TYPE    NUMBER   ENAME      TOTAL CP  AVE CP

        1    148892  SHELL131      1.172   0.000008
        2      2030  LINK33        0.000   0.000000
        3      1626  LINK33        0.000   0.000000
        4      1151  LINK33        0.000   0.000000
        5      1189  LINK33        0.000   0.000000
        6      2122  LINK33        0.016   0.000007
        7      2043  LINK33        0.000   0.000000
        8      1225  LINK33        0.000   0.000000
        9      1846  LINK33        0.016   0.000008
       10      1432  LINK33        0.016   0.000011
       11      1590  LINK33        0.000   0.000000
       12    148892  SURF152       0.938   0.000006
 Time at end of element matrix formulation CP = 7.28125.                 

 DISTRIBUTED SPARSE MATRIX DIRECT SOLVER.
  Number of equations =       58688,    Maximum wavefront =      7

  Local memory allocated for solver              =     21.333 MB
  Local memory required for in-core solution     =     20.642 MB
  Local memory required for out-of-core solution =     12.964 MB

  Total memory allocated for solver              =     38.306 MB
  Total memory required for in-core solution     =     37.089 MB
  Total memory required for out-of-core solution =     24.477 MB

 *** NOTE ***                            CP =       7.531   TIME= 15:14:37
 The Distributed Sparse Matrix Solver is currently running in the        
 in-core memory mode.  This memory mode uses the most amount of memory   
 in order to avoid using the hard drive as much as possible, which most  
 often results in the fastest solution time.  This mode is recommended   
 if enough physical memory is present to accommodate all of the solver   
 data.                                                                   
 Distributed sparse solver maximum pivot= 1.30595819 at node 28841 TEMP. 
 Distributed sparse solver minimum pivot= 0.224613748 at node 16266      
 TEMP.                                                                   
 Distributed sparse solver minimum pivot in absolute value= 0.224613748  
 at node 16266 TEMP.                                                     

   *** ELEMENT RESULT CALCULATION TIMES
     TYPE    NUMBER   ENAME      TOTAL CP  AVE CP

        1    148892  SHELL131      1.312   0.000009
        2      2030  LINK33        0.016   0.000008
        3      1626  LINK33        0.000   0.000000
        4      1151  LINK33        0.016   0.000014
        5      1189  LINK33        0.000   0.000000
        6      2122  LINK33        0.000   0.000000
        7      2043  LINK33        0.000   0.000000
        8      1225  LINK33        0.000   0.000000
        9      1846  LINK33        0.000   0.000000
       10      1432  LINK33        0.000   0.000000
       11      1590  LINK33        0.031   0.000020
       12    148892  SURF152       0.859   0.000006

   *** NODAL LOAD CALCULATION TIMES
     TYPE    NUMBER   ENAME      TOTAL CP  AVE CP

        1    148892  SHELL131      0.906   0.000006
        2      2030  LINK33        0.000   0.000000
        3      1626  LINK33        0.016   0.000010
        4      1151  LINK33        0.000   0.000000
        5      1189  LINK33        0.000   0.000000
        6      2122  LINK33        0.000   0.000000
        7      2043  LINK33        0.016   0.000008
        8      1225  LINK33        0.000   0.000000
        9      1846  LINK33        0.000   0.000000
       10      1432  LINK33        0.000   0.000000
       11      1590  LINK33        0.000   0.000000
       12    148892  SURF152       0.062   0.000000
 *** LOAD STEP     1   SUBSTEP     1  COMPLETED.    CUM ITER =      1
 *** TIME =   1.00000         TIME INC =   1.00000      NEW TRIANG MATRIX


 *** ANSYS BINARY FILE STATISTICS
  BUFFER SIZE USED= 16384
        5.125 MB WRITTEN ON ASSEMBLED MATRIX FILE: file0.full
       48.438 MB WRITTEN ON RESULTS FILE: file0.rth
 *************** Write FE CONNECTORS *********

 WRITE OUT CONSTRAINT EQUATIONS TO FILE= file.ce                                                                                                                                                                                                                                                             
 ****************************************************
 *************** FINISHED SOLVE FOR LS 1 *************

 *GET  _WALLASOL  FROM  ACTI  ITEM=TIME WALL  VALUE=  15.2441667    

 FINISH SOLUTION PROCESSING


 ***** ROUTINE COMPLETED *****  CP =        10.141



 *** ANSYS - ENGINEERING ANALYSIS SYSTEM  RELEASE 2020 R2          20.2     ***
 DISTRIBUTED ANSYS Mechanical Enterprise                       

 20120530  VERSION=WINDOWS x64   15:14:39  FEB 15, 2022 CP=     10.141

 layout--Steady-State Thermal (A5)                                             



          ***** ANSYS RESULTS INTERPRETATION (POST1) *****

 *** NOTE ***                            CP =      10.141   TIME= 15:14:39
 Reading results into the database (SET command) will update the current 
 displacement and force boundary conditions in the database with the     
 values from the results file for that load set.  Note that any          
 subsequent solutions will use these values unless action is taken to    
 either SAVE the current values or not overwrite them (/EXIT,NOSAVE).    

 Set Encoding of XML File to:ISO-8859-1

 Set Output of XML File to:
     PARM,     ,     ,     ,     ,     ,     ,     ,     ,     ,     ,     ,
         ,     ,     ,     ,     ,     ,     ,

 DATABASE WRITTEN ON FILE  parm.xml                                                                                                                                                                                                                                                            

 EXIT THE ANSYS POST1 DATABASE PROCESSOR


 ***** ROUTINE COMPLETED *****  CP =        10.141



 PRINTOUT RESUMED BY /GOP

 *GET  _WALLDONE  FROM  ACTI  ITEM=TIME WALL  VALUE=  15.2441667    

 PARAMETER _PREPTIME =     1.000000000    

 PARAMETER _SOLVTIME =     6.000000000    

 PARAMETER _POSTTIME =     0.000000000    

 PARAMETER _TOTALTIM =     7.000000000    

 *GET  _DLBRATIO  FROM  ACTI  ITEM=SOLU DLBR  VALUE=  1.01457785    

 *GET  _COMBTIME  FROM  ACTI  ITEM=SOLU COMB  VALUE= 0.344628600    
 --- Total number of nodes = 91206
 --- Total number of elements = 314038
 --- Element load balance ratio = 1.01457785
 --- Time to combine distributed files = 0.3446286

 EXIT ANSYS WITHOUT SAVING DATABASE


 NUMBER OF WARNING MESSAGES ENCOUNTERED=          2
 NUMBER OF ERROR   MESSAGES ENCOUNTERED=          0

+--------- D I S T R I B U T E D   A N S Y S   S T A T I S T I C S ------------+

Release: 2020 R2            Build: 20.2       Update: UP20200601   Platform: WINDOWS x64 
Date Run: 02/15/2022   Time: 15:14     Process ID: 59372
Operating System: Windows 10  (Build: 19042)

Processor Model: 11th Gen Intel(R) Core(TM) i7-11700 @ 2.50GHz

Compiler: Intel(R) FORTRAN Compiler Version 19.0.0  (Build: 20190206)
          Intel(R) C/C++ Compiler Version 19.0.0  (Build: 20190206)
          Intel(R) Math Kernel Library Version 2020.0.0 Product Build 20191125

Number of machines requested            :    1
Total number of cores available         :   16
Number of physical cores available      :    8
Number of processes requested           :    2
Number of threads per process requested :    1
Total number of cores requested         :    2 (Distributed Memory Parallel)               
MPI Type: INTELMPI
MPI Version: Intel(R) MPI Library 2018 Update 3 for Windows* OS


GPU Acceleration: Not Requested

Job Name: file0
Input File: dummy.dat

  Core                Machine Name   Working Directory
 -----------------------------------------------------
     0                       STONE   D:\石甘泉文件夹\UnderfloorHeatingLayout\fig\experiment2\balcony3\ours\ansys\_ProjectScratch\ScrEBBB
     1                       STONE   D:\石甘泉文件夹\UnderfloorHeatingLayout\fig\experiment2\balcony3\ours\ansys\_ProjectScratch\ScrEBBB
 
Latency time from master to core     1 =    0.513 microseconds
 
Communication speed from master to core     1 = 10244.59 MB/sec

Total CPU time for main thread                    :        7.7 seconds
Total CPU time summed for all threads             :       10.2 seconds

Elapsed time spent obtaining a license            :        1.4 seconds
Elapsed time spent pre-processing model (/PREP7)  :        0.5 seconds
Elapsed time spent solution - preprocessing       :        1.6 seconds
Elapsed time spent computing solution             :        3.6 seconds
Elapsed time spent solution - postprocessing      :        0.3 seconds
Elapsed time spent post-processing model (/POST1) :        0.0 seconds
 
Equation solver used                              :            Sparse (symmetric)
Equation solver effective I/O rate                :        3.5 GB/sec

Maximum total memory used                         :      763.0 MB
Maximum total memory allocated                    :     3136.0 MB
Total physical memory available                   :         16 GB

Total amount of I/O written to disk               :        0.2 GB
Total amount of I/O read from disk                :        0.1 GB

+------ E N D   D I S T R I B U T E D   A N S Y S   S T A T I S T I C S -------+


 *---------------------------------------------------------------------------*
 |                                                                           |
 |                       DISTRIBUTED ANSYS RUN COMPLETED                     |
 |                                                                           |
 |---------------------------------------------------------------------------|
 |                                                                           |
 | Ansys 2020 R2               Build 20.2         UP20200601     WINDOWS x64 |
 |                                                                           |
 |---------------------------------------------------------------------------|
 |                                                                           |
 | Database Requested(-db)  1024 MB    Scratch Memory Requested      1024 MB |
 | Maximum Database Used     223 MB    Maximum Scratch Memory Used    284 MB |
 |                                                                           |
 |---------------------------------------------------------------------------|
 |                                                                           |
 |        CP Time      (sec) =         10.188       Time  =  15:14:39        |
 |        Elapsed Time (sec) =          9.000       Date  =  02/15/2022      |
 |                                                                           |
 *---------------------------------------------------------------------------*
